
#=======================================================================
data_global
#=======================================================================

_audit_creation_method                   'Jana2020 1.3.40'


# 1. PROCESSING SUMMARY (IUCr Office Use Only)

_journal_date_recd_electronic            ?
_journal_date_to_coeditor                ?
_journal_date_from_coeditor              ?
_journal_date_accepted                   ?
_journal_date_printers_first             ?
_journal_date_printers_final             ?
_journal_date_proofs_out                 ?
_journal_date_proofs_in                  ?
_journal_coeditor_name                   ?
_journal_coeditor_code                   ?
_journal_coeditor_notes
; ?
;
_journal_techeditor_code                 ?
_journal_paper_category                  ?
_journal_techeditor_notes
; ?
;
_journal_coden_ASTM                      ?
_journal_name_full                       'Acta Crystallographica Section C'
_journal_year                            ?
_journal_volume                          ?
_journal_issue                           ?
_journal_page_first                      ?
_journal_page_last                       ?
_journal_suppl_publ_number               ?
_journal_suppl_publ_pages                ?

#=======================================================================

# 2. SUBMISSION DETAILS

_publ_contact_author_name                ?
_publ_contact_author_address
; ?
;
_publ_contact_author_email               ?
_publ_contact_author_fax                 ?
_publ_contact_author_phone               ?

_publ_requested_journal                  'Acta Crystallographica Section C'
_publ_requested_category                 ?

_publ_contact_letter
; ?
;

#=======================================================================

# 3. TITLE AND AUTHOR LIST

_publ_section_title
; ?
;
_publ_section_title_footnote
; ?
;
loop_
 _publ_author_name
 _publ_author_footnote
 _publ_author_address
; ?      # name
;
; ?      # footnote
;
; ?      # address
;

#=======================================================================

# 4. TEXT

_publ_section_synopsis
; ?
;
_publ_section_abstract
; ?
;
_publ_section_comment
; ?
;
_publ_section_introduction
; ?
;
_publ_section_experimental
; ?
;
_publ_section_exptl_prep
; ?
;
_publ_section_exptl_refinement
; ?
;
_publ_section_exptl_solution
; ?
;
_publ_section_discussion
; ?
;
_publ_section_acknowledgements
; ?
;
_publ_section_references
;
;
_publ_section_figure_captions
; ?
;
_publ_section_table_legends
; ?
;

#=======================================================================
data_I
#=======================================================================

# 5. CHEMICAL DATA

_chemical_name_systematic
; ?
;
_chemical_name_common                    ?
_chemical_formula_moiety                 ?
_chemical_formula_structural             ?
_chemical_formula_analytical             ?
_chemical_formula_iupac                  ?
_chemical_formula_sum                    'C6 H14 O7'
_chemical_formula_weight                 198.2
_chemical_melting_point                  ?
_chemical_compound_source                ?
_chemical_absolute_configuration         ?

#=======================================================================

# 6. POWDER SPECIMEN AND CRYSTAL DATA

_symmetry_cell_setting                   monoclinic
_symmetry_space_group_name_H-M           'P 1 21 1'
_symmetry_space_group_name_Hall          'P 2yb'
_symmetry_Int_Tables_number              4

loop_
 _space_group_symop_id
 _space_group_symop_operation_xyz
 1   x,y,z
 2   -x,y+1/2,-z

_cell_length_a                           8.8030(9)
_cell_length_b                           5.0850(14)
_cell_length_c                           9.7080(5)
_cell_angle_alpha                        90
_cell_angle_beta                         97.67
_cell_angle_gamma                        90
_cell_volume                             430.67(13)


_cell_formula_units_Z                    2
_cell_measurement_temperature            293
_cell_special_details
; ?
;

_exptl_crystal_density_diffrn            1.5282
_exptl_crystal_density_meas              ?
_exptl_crystal_density_method            ?
_exptl_crystal_F_000                     184

_pd_spec_size_axial                      ?
_pd_spec_size_equat                      ?
_pd_spec_size_thick                      ?
_pd_spec_mounting                        ?
_pd_spec_mount_mode                      ?
_pd_spec_shape                           ?
_pd_char_particle_morphology             ?
_pd_char_colour                          ?
_pd_prep_cool_rate                       ?
_pd_prep_pressure                        ?
_pd_prep_temperature                     ?

_exptl_absorpt_coefficient_mu            1.243
_exptl_absorpt_correction_type           ?
_exptl_absorpt_process_details           ?
_exptl_absorpt_correction_T_min          ?
_exptl_absorpt_correction_T_max          ?
loop_
 _exptl_crystal_face_index_h
 _exptl_crystal_face_index_k
 _exptl_crystal_face_index_l
 _exptl_crystal_face_perp_dist
 ? ? ? ?

#=======================================================================

# 7. EXPERIMENTAL DATA

_exptl_special_details                   ?
_pd_instr_location
; ?
;
_pd_calibration_special_details
; ?
;

_diffrn_ambient_temperature              293
_diffrn_source                           ?
_diffrn_source_target                    ?
_diffrn_source_type                      ?
_diffrn_radiation_type                   ?
_diffrn_radiation_wavelength             1.54059
_diffrn_radiation_monochromator          ?
_diffrn_measurement_device               ?
_diffrn_measurement_device_type          ?
_diffrn_detector                         ?
_diffrn_detector_type                    ?

_pd_meas_scan_method                     ?
_pd_meas_special_details
; ?
;
_pd_meas_number_of_points                4096
_pd_meas_2theta_range_min                1.646
_pd_meas_2theta_range_max                120.560
_pd_meas_2theta_range_inc                ?

_diffrn_radiation_probe                  X-ray

#=======================================================================

# 8. REFINEMENT DATA

_pd_proc_ls_special_details
; ?
;
_pd_proc_ls_profile_function             'Pseudo-Voigt'
_pd_proc_ls_background_function          '15 Legendre polynoms'
_pd_proc_ls_pref_orient_corr             none
_pd_proc_ls_prof_R_factor                ?
_pd_proc_ls_prof_wR_factor               ?
_pd_proc_ls_prof_wR_expected             ?

_refine_special_details
; ?
;

_refine_ls_R_factor_gt                   ?
_refine_ls_wR_factor_gt                  ?
_refine_ls_R_factor_all                  ?
_refine_ls_wR_factor_all                 ?
_refine_ls_goodness_of_fit_all           ?
_refine_ls_restrained_S_gt               ?
_refine_ls_restrained_S_all              ?
_refine_ls_number_parameters             ?
_refine_ls_number_restraints             0
_refine_ls_number_constraints            1
_refine_ls_weighting_scheme              sigma
_refine_ls_weighting_details             ?
_refine_ls_hydrogen_treatment            'constr'
_refine_ls_shift/su_max                  ?
_refine_ls_shift/su_mean                 ?
_refine_diff_density_max                 ?
_refine_diff_density_min                 ?
_refine_ls_extinction_method             ?
_refine_ls_extinction_coef               ?
_refine_ls_extinction_expression         ?

_pd_proc_2theta_range_min                9.544
_pd_proc_2theta_range_max                108.247
_pd_proc_2theta_range_inc                ?
_pd_proc_wavelength                      ?

_pd_block_diffractogram_id               ?

loop_
_pd_proc_info_excluded_regions
 'from 1.644 to 9.538'
 'from 108.254 to 120.681'
_pd_proc_info_data_reduction             ?

loop_
 _atom_type_symbol
 _atom_type_scat_dispersion_real
 _atom_type_scat_dispersion_imag
 _atom_type_scat_source
 C    0.0181  0.0091
 'International Tables Vol C tables 4.2.6.8 and 6.1.1.1'
 H    0.0000  0.0000
 'International Tables Vol C tables 4.2.6.8 and 6.1.1.1'
 O    0.0492  0.0322
 'International Tables Vol C tables 4.2.6.8 and 6.1.1.1'

_computing_data_collection               ?
_computing_cell_refinement               ?
_computing_data_reduction                ?
_computing_structure_solution            ?
_computing_structure_refinement          ?
_computing_molecular_graphics            ?
_computing_publication_material          ?

loop_
 _restr_distance_atom_site_label_1
 _restr_distance_site_symmetry_1
 _restr_distance_atom_site_label_2
 _restr_distance_site_symmetry_2
 _restr_distance_target
 _restr_distance_target_weight_param
 ? ? ? ? ? ?

loop_
 _restr_angle_atom_site_label_1
 _restr_angle_site_symmetry_1
 _restr_angle_atom_site_label_2
 _restr_angle_site_symmetry_2
 _restr_angle_atom_site_label_3
 _restr_angle_site_symmetry_3
 _restr_angle_target
 _restr_angle_target_weight_param
 ? ? ? ? ? ? ? ?

loop_
 _restr_torsion_atom_site_label_1
 _restr_torsion_site_symmetry_1
 _restr_torsion_atom_site_label_2
 _restr_torsion_site_symmetry_2
 _restr_torsion_atom_site_label_3
 _restr_torsion_site_symmetry_3
 _restr_torsion_atom_site_label_4
 _restr_torsion_site_symmetry_4
 _restr_torsion_angle_target
 _restr_torsion_weight_param
 ? ? ? ? ? ? ? ? ? ?

loop_
 _restr_equal_distance_atom_site_label_1
 _restr_equal_distance_site_symmetry_1
 _restr_equal_distance_atom_site_label_2
 _restr_equal_distance_site_symmetry_2
 _restr_equal_distance_class_class_id
 _restr_equal_distance_class_target_weight_param
 ? ? ? ? ? ?

loop_
 _restr_equal_angle_atom_site_label_1
 _restr_equal_angle_site_symmetry_1
 _restr_equal_angle_atom_site_label_2
 _restr_equal_angle_site_symmetry_2
 _restr_equal_angle_atom_site_label_3
 _restr_equal_angle_site_symmetry_3
 _restr_equal_angle_class_class_id
 _restr_equal_angle_class_target_weight_param
 ? ? ? ? ? ? ? ?

loop_
 _restr_equal_torsion_atom_site_label_1
 _restr_equal_torsion_site_symmetry_1
 _restr_equal_torsion_atom_site_label_2
 _restr_equal_torsion_site_symmetry_2
 _restr_equal_torsion_atom_site_label_3
 _restr_equal_torsion_site_symmetry_3
 _restr_equal_torsion_atom_site_label_4
 _restr_equal_torsion_site_symmetry_4
 _restr_equal_torsion_class_class_id
 _restr_equal_torsion_class_target_weight_param
 ? ? ? ? ? ? ? ? ? ?


#=======================================================================

# 9. ATOMIC COORDINATES AND DISPLACEMENT PARAMETERS

loop_
 _atom_site_label
 _atom_site_type_symbol
 _atom_site_fract_x
 _atom_site_fract_y
 _atom_site_fract_z
 _atom_site_adp_type
 _atom_site_U_iso_or_equiv
 _atom_site_site_symmetry_multiplicity
 _atom_site_occupancy
 _atom_site_calc_flag
 _atom_site_refinement_flags
 _atom_site_disorder_assembly
 _atom_site_disorder_group
  C1 C 0.229429 0.108381 0.06837 Uiso 0.05 2 1 d . . .
  C2 C 0.154418 0.003065 0.195689 Uiso 0.05 2 1 d . . .
  C3 C 0.248681 0.022098 0.346622 Uiso 0.05 2 1 d . . .
  C4 C 0.386692 0.139229 0.319857 Uiso 0.05 2 1 d . . .
  C5 C 0.449689 -0.0259 0.203687 Uiso 0.05 2 1 d . . .
  C6 C 0.606503 -0.008129 0.234557 Uiso 0.05 2 1 d . . .
  O1 O 0.20265 0.370512 0.015337 Uiso 0.05 2 1 d . . .
  O2 O 0.017582 0.108983 0.181258 Uiso 0.05 2 1 d . . .
  O3 O 0.183767 -0.099969 0.4642 Uiso 0.05 2 1 d . . .
  O4 O 0.492543 0.055754 0.437545 Uiso 0.05 2 1 d . . .
  O5 O 0.37468 0.060144 0.059613 Uiso 0.05 2 1 d . . .
  O6 O 0.662607 -0.256096 0.286555 Uiso 0.05 2 1 d . . .
  O7 O -0.076381 -0.534633 0.30984 Uiso 0.05 2 1 d . . .

loop_
 _atom_site_aniso_label
 _atom_site_aniso_type_symbol
 _atom_site_aniso_U_11
 _atom_site_aniso_U_22
 _atom_site_aniso_U_33
 _atom_site_aniso_U_12
 _atom_site_aniso_U_13
 _atom_site_aniso_U_23
 ? ? ? ? ? ? ? ?

loop_
 _jana_atom_site_ADP_C_label
 _jana_atom_site_ADP_C_type_symbol
 _jana_atom_site_ADP_C_111
 _jana_atom_site_ADP_C_112
 _jana_atom_site_ADP_C_113
 _jana_atom_site_ADP_C_122
 _jana_atom_site_ADP_C_123
 _jana_atom_site_ADP_C_133
 _jana_atom_site_ADP_C_222
 _jana_atom_site_ADP_C_223
 _jana_atom_site_ADP_C_233
 _jana_atom_site_ADP_C_333
 ? ? ? ? ? ? ? ? ? ? ? ?

loop_
 _jana_atom_site_ADP_D_label
 _jana_atom_site_ADP_D_type_symbol
 _jana_atom_site_ADP_D_1111
 _jana_atom_site_ADP_D_1112
 _jana_atom_site_ADP_D_1113
 _jana_atom_site_ADP_D_1122
 _jana_atom_site_ADP_D_1123
 _jana_atom_site_ADP_D_1133
 _jana_atom_site_ADP_D_1222
 _jana_atom_site_ADP_D_1223
 _jana_atom_site_ADP_D_1233
 _jana_atom_site_ADP_D_1333
 _jana_atom_site_ADP_D_2222
 _jana_atom_site_ADP_D_2223
 _jana_atom_site_ADP_D_2233
 _jana_atom_site_ADP_D_2333
 _jana_atom_site_ADP_D_3333
 ? ? ? ? ? ? ? ? ? ? ? ? ? ? ? ? ?

loop_
 _jana_atom_site_ADP_E_label
 _jana_atom_site_ADP_E_type_symbol
 _jana_atom_site_ADP_E_11111
 _jana_atom_site_ADP_E_11112
 _jana_atom_site_ADP_E_11113
 _jana_atom_site_ADP_E_11122
 _jana_atom_site_ADP_E_11123
 _jana_atom_site_ADP_E_11133
 _jana_atom_site_ADP_E_11222
 _jana_atom_site_ADP_E_11223
 _jana_atom_site_ADP_E_11233
 _jana_atom_site_ADP_E_11333
 _jana_atom_site_ADP_E_12222
 _jana_atom_site_ADP_E_12223
 _jana_atom_site_ADP_E_12233
 _jana_atom_site_ADP_E_12333
 _jana_atom_site_ADP_E_13333
 _jana_atom_site_ADP_E_22222
 _jana_atom_site_ADP_E_22223
 _jana_atom_site_ADP_E_22233
 _jana_atom_site_ADP_E_22333
 _jana_atom_site_ADP_E_23333
 _jana_atom_site_ADP_E_33333
 ? ? ? ? ? ? ? ? ? ? ? ? ? ? ? ? ? ? ? ? ? ? ?

loop_
 _jana_atom_site_ADP_F_label
 _jana_atom_site_ADP_F_type_symbol
 _jana_atom_site_ADP_F_111111
 _jana_atom_site_ADP_F_111112
 _jana_atom_site_ADP_F_111113
 _jana_atom_site_ADP_F_111122
 _jana_atom_site_ADP_F_111123
 _jana_atom_site_ADP_F_111133
 _jana_atom_site_ADP_F_111222
 _jana_atom_site_ADP_F_111223
 _jana_atom_site_ADP_F_111233
 _jana_atom_site_ADP_F_111333
 _jana_atom_site_ADP_F_112222
 _jana_atom_site_ADP_F_112223
 _jana_atom_site_ADP_F_112233
 _jana_atom_site_ADP_F_112333
 _jana_atom_site_ADP_F_113333
 _jana_atom_site_ADP_F_122222
 _jana_atom_site_ADP_F_122223
 _jana_atom_site_ADP_F_122233
 _jana_atom_site_ADP_F_122333
 _jana_atom_site_ADP_F_123333
 _jana_atom_site_ADP_F_133333
 _jana_atom_site_ADP_F_222222
 _jana_atom_site_ADP_F_222223
 _jana_atom_site_ADP_F_222233
 _jana_atom_site_ADP_F_222333
 _jana_atom_site_ADP_F_223333
 _jana_atom_site_ADP_F_233333
 _jana_atom_site_ADP_F_333333
 ? ? ? ? ? ? ? ? ? ? ? ? ? ? ? ? ? ? ? ? ? ? ? ? ? ? ? ? ? ?


#=======================================================================

# 10. MOLECULAR GEOMETRY


loop_
 _geom_bond_atom_site_label_1
 _geom_bond_atom_site_label_2
 _geom_bond_site_symmetry_1
 _geom_bond_site_symmetry_2
 _geom_bond_distance
 _geom_bond_publ_flag
 ? ? ? ? ? ?

loop_
 _geom_angle_atom_site_label_1
 _geom_angle_atom_site_label_2
 _geom_angle_atom_site_label_3
 _geom_angle_site_symmetry_1
 _geom_angle_site_symmetry_2
 _geom_angle_site_symmetry_3
 _geom_angle
 _geom_angle_publ_flag
 ? ? ? ? ? ? ? ?

loop_
 _geom_torsion_atom_site_label_1
 _geom_torsion_atom_site_label_2
 _geom_torsion_atom_site_label_3
 _geom_torsion_atom_site_label_4
 _geom_torsion_site_symmetry_1
 _geom_torsion_site_symmetry_2
 _geom_torsion_site_symmetry_3
 _geom_torsion_site_symmetry_4
 _geom_torsion
 _geom_torsion_publ_flag
 ? ? ? ? ? ? ? ? ? ?

loop_
 _geom_hbond_atom_site_label_D
 _geom_hbond_atom_site_label_H
 _geom_hbond_atom_site_label_A
 _geom_hbond_site_symmetry_D
 _geom_hbond_site_symmetry_H
 _geom_hbond_site_symmetry_A
 _geom_hbond_distance_DH
 _geom_hbond_distance_HA
 _geom_hbond_distance_DA
 _geom_hbond_angle_DHA
 _geom_hbond_publ_flag
 ? ? ? ? ? ? ? ? ? ? ?


#=======================================================================

# 11. POWDER PROFILE



# For import please use the tool:
#"Structure->New->from Jana2020 embedded in CIF"


_Jana_m40_file
;
   13    0    0    1    0
 0.000000 0.000000 0.000000 0.000000 0.000000 0.000000      100000
 1.000000 0.000000 0.000000                                 100
 0.000000 0.000000 0.000000 0.000000 0.000000 0.000000      000000
 0.000000 0.000000 0.000000 0.000000 0.000000 0.000000      000000
C1        1  1     1.000000 0.229429 0.108381 0.068370
 0.050000 0.000000 0.000000 0.000000 0.000000 0.000000      0000000000
C2        1  1     1.000000 0.154418 0.003065 0.195689
 0.050000 0.000000 0.000000 0.000000 0.000000 0.000000      0000000000
C3        1  1     1.000000 0.248681 0.022098 0.346622
 0.050000 0.000000 0.000000 0.000000 0.000000 0.000000      0000000000
C4        1  1     1.000000 0.386692 0.139229 0.319857
 0.050000 0.000000 0.000000 0.000000 0.000000 0.000000      0000000000
C5        1  1     1.000000 0.449689-0.025900 0.203687
 0.050000 0.000000 0.000000 0.000000 0.000000 0.000000      0000000000
C6        1  1     1.000000 0.606503-0.008129 0.234557
 0.050000 0.000000 0.000000 0.000000 0.000000 0.000000      0000000000
O1        3  1     1.000000 0.202650 0.370512 0.015337
 0.050000 0.000000 0.000000 0.000000 0.000000 0.000000      0000000000
O2        3  1     1.000000 0.017582 0.108983 0.181258
 0.050000 0.000000 0.000000 0.000000 0.000000 0.000000      0000000000
O3        3  1     1.000000 0.183767-0.099969 0.464200
 0.050000 0.000000 0.000000 0.000000 0.000000 0.000000      0000000000
O4        3  1     1.000000 0.492543 0.055754 0.437545
 0.050000 0.000000 0.000000 0.000000 0.000000 0.000000      0000000000
O5        3  1     1.000000 0.374680 0.060144 0.059613
 0.050000 0.000000 0.000000 0.000000 0.000000 0.000000      0000000000
O6        3  1     1.000000 0.662607-0.256096 0.286555
 0.050000 0.000000 0.000000 0.000000 0.000000 0.000000      0000000000
O7        3  1     1.000000-0.076381-0.534633 0.309840
 0.050000 0.000000 0.000000 0.000000 0.000000 0.000000      0000000000
--------------------------   s.u. block   --------------------------------------
 0.000000 0.000000 0.000000 0.000000 0.000000 0.000000
 0.000000 0.000000 0.000000
 0.000000 0.000000 0.000000 0.000000 0.000000 0.000000
 0.000000 0.000000 0.000000 0.000000 0.000000 0.000000
C1                 0.000000 0.000000 0.000000 0.000000
 0.000000 0.000000 0.000000 0.000000 0.000000 0.000000
C2                 0.000000 0.000000 0.000000 0.000000
 0.000000 0.000000 0.000000 0.000000 0.000000 0.000000
C3                 0.000000 0.000000 0.000000 0.000000
 0.000000 0.000000 0.000000 0.000000 0.000000 0.000000
C4                 0.000000 0.000000 0.000000 0.000000
 0.000000 0.000000 0.000000 0.000000 0.000000 0.000000
C5                 0.000000 0.000000 0.000000 0.000000
 0.000000 0.000000 0.000000 0.000000 0.000000 0.000000
C6                 0.000000 0.000000 0.000000 0.000000
 0.000000 0.000000 0.000000 0.000000 0.000000 0.000000
O1                 0.000000 0.000000 0.000000 0.000000
 0.000000 0.000000 0.000000 0.000000 0.000000 0.000000
O2                 0.000000 0.000000 0.000000 0.000000
 0.000000 0.000000 0.000000 0.000000 0.000000 0.000000
O3                 0.000000 0.000000 0.000000 0.000000
 0.000000 0.000000 0.000000 0.000000 0.000000 0.000000
O4                 0.000000 0.000000 0.000000 0.000000
 0.000000 0.000000 0.000000 0.000000 0.000000 0.000000
O5                 0.000000 0.000000 0.000000 0.000000
 0.000000 0.000000 0.000000 0.000000 0.000000 0.000000
O6                 0.000000 0.000000 0.000000 0.000000
 0.000000 0.000000 0.000000 0.000000 0.000000 0.000000
O7                 0.000000 0.000000 0.000000 0.000000
 0.000000 0.000000 0.000000 0.000000 0.000000 0.000000
--------------------------   Saved points   ------------------------------------
    0
--------------------------   Critical points   ---------------------------------
    0
--------------------------------------------------------------------------------
;


_Jana_m41_file
;
usecutoff 0 cutoffmn 0.5 cutoffmx 200
usecutoffsat 0 cutoffsatmn 0.5 cutoffsatmx 200
bckgtype 1 bckgnum 15 manbckg 0 useeach 1 wtlebail 1 uklebail 0 asymm 3 usehs 0
rough 0 illum 0 focusBB 0
skipfrto 1.644 9.538
skipfrto 108.254 120.681
proffun 3 splitprof 0 strain 0 partbroad 0 cutoff 8
skipfrdl 0
end
*******************************************************************************
# Shift parameters - zero, sycos, sysin
 0.000000-11.34486 0.000000                                 010
# Background parameters
 3396.150-4077.917 1855.986 568.0164-1790.098 1156.597      111111
 39.92080-90.56788-494.9189-1025.755 615.7706 556.7782      111111
-23.81306-179.8109-65.15600                                 111
# Asymmetry parameters
 0.052045-0.002045                                          00
# Cell parameters - a,b,c,alpha,beta,gamma
 8.803000 5.085000 9.708000 90.00000 97.67000 90.00000      000000
# Gaussian parameters - U,V,W,P
-370.2745 0.000000 0.286526 0.000000                        0000
# Lorentzian parameters - LX,LXe,LY,LYe
 6.917130 0.000000 0.000000 0.000000                        0000
----------------------------   s.u. block   -----------------------------------
# Shift parameters - zero, sycos, sysin
 0.000000 0.177820 0.000000
# Background parameters
 22.38504 43.11321 36.51875 32.60342 37.87605 44.60268
 43.71786 47.71160 51.02076 53.06323 57.25611 58.13676
 59.34930 62.57693 62.72264
# Asymmetry parameters
 0.000000 0.000000
# Cell parameters - a,b,c,alpha,beta,gamma
 0.000867 0.001405 0.000452 0.000000 0.000000 0.000000
# Gaussian parameters - U,V,W,P
 0.000000 0.000000 1.027345 0.000000
# Lorentzian parameters - LX,LXe,LY,LYe
 0.240217 0.000000 0.000000 0.000000
-------------------------------------------------------------------------------
;


_Jana_m50_file
;
Version Jana2020
title
cell 8.803 5.085 9.708 90 97.67 90
esdcell 0.000867 0.001405 0.000452 0 0 0
spgroup P21 4 22
lattice P
symmetry x y z
symmetry -x y+1/2 -z
unitsnumb 2
atlist C6 H14 O7
formtab -62
atom C atradius 0.77 color 128073041
atom H atradius 0.46 color 255204204
atom O atradius 0.74 color 254003000
roundmethod 1
end
*******************************************************************************
contour
end contour
dist
end dist
fourier
end fourier
refine
  fsquare 0 wilsonmod 0
  cycles 1000 autkeys 0 convchck 0 keydynam 0 uisolim 0
end refine
;


_Jana_m90_file
;
datblock Block1
nref 4096
radtype 1 dattype 2 pwdmethod 0
lambda 1.54059 lpfactor 2 monangle 13.6416 perfmono 0.5
datcolltemp 293
end
Data Block1
   1.646      0.      0.
   1.675      0.      0.
   1.704      0.      0.
   1.733      0.      0.
   1.762      0.      0.
   1.791      0.      0.
   1.820      0.      0.
   1.849      0.      0.
   1.878      0.      0.
   1.907      0.      0.
   1.936      0.      0.
   1.965      0.      0.
   1.994      0.      0.
   2.023      0.      0.
   2.052      0.      0.
   2.081      0.      0.
   2.110      0.      0.
   2.139      0.      0.
   2.168      0.      0.
   2.197      0.      0.
   2.226      0.      0.
   2.255      0.      0.
   2.285      0.      0.
   2.314      0.      0.
   2.343      0.      0.
   2.372      0.      0.
   2.401      0.      0.
   2.430      0.      0.
   2.459      0.      0.
   2.488      0.      0.
   2.517     79.      0.
   2.546    196.      0.
   2.575    175.      0.
   2.604    137.      0.
   2.633    158.      0.
   2.662    120.      0.
   2.691    122.      0.
   2.720    137.      0.
   2.749    112.      0.
   2.778    142.      0.
   2.807    134.      0.
   2.836    132.      0.
   2.865    140.      0.
   2.894    193.      0.
   2.923    234.      0.
   2.952    303.      0.
   2.981    378.      0.
   3.010    395.      0.
   3.040    434.      0.
   3.069    490.      0.
   3.098    570.      0.
   3.127    642.      0.
   3.156    691.      0.
   3.185    776.      0.
   3.214    772.      0.
   3.243    851.      0.
   3.272    889.      0.
   3.301    923.      0.
   3.330    976.      0.
   3.359    917.      0.
   3.388   1057.      0.
   3.417   1072.      0.
   3.446   1142.      0.
   3.475   1078.      0.
   3.504   1142.      0.
   3.533   1113.      0.
   3.562   1200.      0.
   3.591   1247.      0.
   3.620   1268.      0.
   3.649   1302.      0.
   3.678   1250.      0.
   3.707   1244.      0.
   3.736   1194.      0.
   3.766   1133.      0.
   3.795   1262.      0.
   3.824   1304.      0.
   3.853   1367.      0.
   3.882   1398.      0.
   3.911   1436.      0.
   3.940   1470.      0.
   3.969   1577.      0.
   3.998   1604.      0.
   4.027   1473.      0.
   4.056   1458.      0.
   4.085   1429.      0.
   4.114   1395.      0.
   4.143   1427.      0.
   4.172   1443.      0.
   4.201   1458.      0.
   4.230   1557.      0.
   4.259   1645.      0.
   4.288   1693.      0.
   4.317   1573.      0.
   4.346   1682.      0.
   4.375   1681.      0.
   4.404   1672.      0.
   4.433   1744.      0.
   4.462   1720.      0.
   4.491   1759.      0.
   4.521   1848.      0.
   4.550   1902.      0.
   4.579   1959.      0.
   4.608   1915.      0.
   4.637   2066.      0.
   4.666   2201.      0.
   4.695   2110.      0.
   4.724   2110.      0.
   4.753   2071.      0.
   4.782   2109.      0.
   4.811   1988.      0.
   4.840   1967.      0.
   4.869   1750.      0.
   4.898   1648.      0.
   4.927   1633.      0.
   4.956   1681.      0.
   4.985   1735.      0.
   5.014   1790.      0.
   5.043   1881.      0.
   5.072   1953.      0.
   5.101   1946.      0.
   5.130   2015.      0.
   5.159   2071.      0.
   5.188   2153.      0.
   5.217   2271.      0.
   5.246   2264.      0.
   5.276   2337.      0.
   5.305   2397.      0.
   5.334   2387.      0.
   5.363   2428.      0.
   5.392   2367.      0.
   5.421   2466.      0.
   5.450   2502.      0.
   5.479   2514.      0.
   5.508   2589.      0.
   5.537   2611.      0.
   5.566   2590.      0.
   5.595   2553.      0.
   5.624   2760.      0.
   5.653   2808.      0.
   5.682   2797.      0.
   5.711   2863.      0.
   5.740   2968.      0.
   5.769   2880.      0.
   5.798   2838.      0.
   5.827   2776.      0.
   5.856   2779.      0.
   5.885   2769.      0.
   5.914   2789.      0.
   5.943   2816.      0.
   5.972   2866.      0.
   6.002   2892.      0.
   6.031   2940.      0.
   6.060   2867.      0.
   6.089   2719.      0.
   6.118   2621.      0.
   6.147   2680.      0.
   6.176   2708.      0.
   6.205   2682.      0.
   6.234   2754.      0.
   6.263   2653.      0.
   6.292   2735.      0.
   6.321   2574.      0.
   6.350   2564.      0.
   6.379   2515.      0.
   6.408   2356.      0.
   6.437   2372.      0.
   6.466   2414.      0.
   6.495   2433.      0.
   6.524   2510.      0.
   6.553   2507.      0.
   6.582   2427.      0.
   6.611   2447.      0.
   6.640   2424.      0.
   6.669   2311.      0.
   6.698   2350.      0.
   6.727   2366.      0.
   6.757   2328.      0.
   6.786   2273.      0.
   6.815   2244.      0.
   6.844   2258.      0.
   6.873   2236.      0.
   6.902   2213.      0.
   6.931   2191.      0.
   6.960   2120.      0.
   6.989   2119.      0.
   7.018   2141.      0.
   7.047   2167.      0.
   7.076   2086.      0.
   7.105   2049.      0.
   7.134   2151.      0.
   7.163   2037.      0.
   7.192   2033.      0.
   7.221   1983.      0.
   7.250   1963.      0.
   7.279   1931.      0.
   7.308   1915.      0.
   7.337   1856.      0.
   7.366   1762.      0.
   7.395   1739.      0.
   7.424   1944.      0.
   7.453   1959.      0.
   7.482   1906.      0.
   7.512   1980.      0.
   7.541   1884.      0.
   7.570   1894.      0.
   7.599   1823.      0.
   7.628   1878.      0.
   7.657   1775.      0.
   7.686   1827.      0.
   7.715   1856.      0.
   7.744   1859.      0.
   7.773   1866.      0.
   7.802   1934.      0.
   7.831   1962.      0.
   7.860   1897.      0.
   7.889   1986.      0.
   7.918   1967.      0.
   7.947   1939.      0.
   7.976   1921.      0.
   8.005   1916.      0.
   8.034   1987.      0.
   8.063   1917.      0.
   8.092   1897.      0.
   8.121   1991.      0.
   8.150   2023.      0.
   8.179   2014.      0.
   8.208   1941.      0.
   8.238   1941.      0.
   8.267   2094.      0.
   8.296   2202.      0.
   8.325   2114.      0.
   8.354   2042.      0.
   8.383   2065.      0.
   8.412   2162.      0.
   8.441   2196.      0.
   8.470   2130.      0.
   8.499   2161.      0.
   8.528   2218.      0.
   8.557   2208.      0.
   8.586   2125.      0.
   8.615   2073.      0.
   8.644   1946.      0.
   8.673   2104.      0.
   8.702   2075.      0.
   8.731   1995.      0.
   8.760   2019.      0.
   8.789   2195.      0.
   8.818   2216.      0.
   8.847   2272.      0.
   8.876   2144.      0.
   8.905   2130.      0.
   8.934   2036.      0.
   8.963   2216.      0.
   8.993   2180.      0.
   9.022   2183.      0.
   9.051   2188.      0.
   9.080   2256.      0.
   9.109   2272.      0.
   9.138   2233.      0.
   9.167   2215.      0.
   9.196   2347.      0.
   9.225   2438.      0.
   9.254   2382.      0.
   9.283   2423.      0.
   9.312   2320.      0.
   9.341   2381.      0.
   9.370   2450.      0.
   9.399   2416.      0.
   9.428   2439.      0.
   9.457   2510.      0.
   9.486   2508.      0.
   9.515   2490.      0.
   9.544   2566.      0.
   9.573   2513.      0.
   9.602   2572.      0.
   9.631   2534.      0.
   9.660   2467.      0.
   9.689   2625.      0.
   9.718   2585.      0.
   9.748   2591.      0.
   9.777   2630.      0.
   9.806   2601.      0.
   9.835   2589.      0.
   9.864   2725.      0.
   9.893   2811.      0.
   9.922   2882.      0.
   9.951   2903.      0.
   9.980   2792.      0.
  10.009   2637.      0.
  10.038   2530.      0.
  10.067   2483.      0.
  10.096   2830.      0.
  10.125   2939.      0.
  10.154   3224.      0.
  10.183   3403.      0.
  10.212   3537.      0.
  10.241   3816.      0.
  10.270   4039.      0.
  10.299   4351.      0.
  10.328   4785.      0.
  10.357   5405.      0.
  10.386   5995.      0.
  10.415   6963.      0.
  10.444   8035.      0.
  10.473   7443.      0.
  10.503   6068.      0.
  10.532   4424.      0.
  10.561   3589.      0.
  10.590   3276.      0.
  10.619   3065.      0.
  10.648   3206.      0.
  10.677   3239.      0.
  10.706   3121.      0.
  10.735   3130.      0.
  10.764   3124.      0.
  10.793   3204.      0.
  10.822   3268.      0.
  10.851   3137.      0.
  10.880   3064.      0.
  10.909   3124.      0.
  10.938   3178.      0.
  10.967   3095.      0.
  10.996   3018.      0.
  11.025   2993.      0.
  11.054   2942.      0.
  11.083   2943.      0.
  11.112   2948.      0.
  11.141   2986.      0.
  11.170   3021.      0.
  11.199   3196.      0.
  11.229   2957.      0.
  11.258   3080.      0.
  11.287   3069.      0.
  11.316   2868.      0.
  11.345   3207.      0.
  11.374   3082.      0.
  11.403   3177.      0.
  11.432   2939.      0.
  11.461   3082.      0.
  11.490   3055.      0.
  11.519   3005.      0.
  11.548   2968.      0.
  11.577   3077.      0.
  11.606   3250.      0.
  11.635   3487.      0.
  11.664   3616.      0.
  11.693   3830.      0.
  11.722   4078.      0.
  11.751   4188.      0.
  11.780   4371.      0.
  11.809   4806.      0.
  11.838   5094.      0.
  11.867   5740.      0.
  11.896   6535.      0.
  11.925   7506.      0.
  11.954   8630.      0.
  11.984   8181.      0.
  12.013   6672.      0.
  12.042   4848.      0.
  12.071   3897.      0.
  12.100   3583.      0.
  12.129   3458.      0.
  12.158   3317.      0.
  12.187   3198.      0.
  12.216   3275.      0.
  12.245   3288.      0.
  12.274   3299.      0.
  12.303   3252.      0.
  12.332   3178.      0.
  12.361   3205.      0.
  12.390   3112.      0.
  12.419   3071.      0.
  12.448   2977.      0.
  12.477   3013.      0.
  12.506   3174.      0.
  12.535   3367.      0.
  12.564   3152.      0.
  12.593   3222.      0.
  12.622   3087.      0.
  12.651   3039.      0.
  12.680   3046.      0.
  12.709   3136.      0.
  12.739   3282.      0.
  12.768   3305.      0.
  12.797   3117.      0.
  12.826   3107.      0.
  12.855   2955.      0.
  12.884   2707.      0.
  12.913   2661.      0.
  12.942   2697.      0.
  12.971   2589.      0.
  13.000   2638.      0.
  13.029   2625.      0.
  13.058   2703.      0.
  13.087   2743.      0.
  13.116   2779.      0.
  13.145   2868.      0.
  13.174   2804.      0.
  13.203   2555.      0.
  13.232   2595.      0.
  13.261   2633.      0.
  13.290   2412.      0.
  13.319   2369.      0.
  13.348   2453.      0.
  13.377   2346.      0.
  13.406   2458.      0.
  13.435   2549.      0.
  13.465   2698.      0.
  13.494   2913.      0.
  13.523   3004.      0.
  13.552   2949.      0.
  13.581   3099.      0.
  13.610   3056.      0.
  13.639   3018.      0.
  13.668   3005.      0.
  13.697   2997.      0.
  13.726   2999.      0.
  13.755   3057.      0.
  13.784   2843.      0.
  13.813   2765.      0.
  13.842   2845.      0.
  13.871   2883.      0.
  13.900   2968.      0.
  13.929   3114.      0.
  13.958   3165.      0.
  13.987   3179.      0.
  14.016   3121.      0.
  14.045   3050.      0.
  14.074   3058.      0.
  14.103   2991.      0.
  14.132   3083.      0.
  14.161   3146.      0.
  14.190   3185.      0.
  14.220   3169.      0.
  14.249   3318.      0.
  14.278   3422.      0.
  14.307   3505.      0.
  14.336   3419.      0.
  14.365   3568.      0.
  14.394   3651.      0.
  14.423   3971.      0.
  14.452   4365.      0.
  14.481   4848.      0.
  14.510   5275.      0.
  14.539   5857.      0.
  14.568   6896.      0.
  14.597   8380.      0.
  14.626  10034.      0.
  14.655  12294.      0.
  14.684  14708.      0.
  14.713  14879.      0.
  14.742  12253.      0.
  14.771   8164.      0.
  14.800   5151.      0.
  14.829   3979.      0.
  14.858   3725.      0.
  14.887   3641.      0.
  14.916   3761.      0.
  14.945   3787.      0.
  14.975   3643.      0.
  15.004   3647.      0.
  15.033   3553.      0.
  15.062   3482.      0.
  15.091   3312.      0.
  15.120   3254.      0.
  15.149   3334.      0.
  15.178   3342.      0.
  15.207   3347.      0.
  15.236   3353.      0.
  15.265   3340.      0.
  15.294   3474.      0.
  15.323   3560.      0.
  15.352   3644.      0.
  15.381   3646.      0.
  15.410   3536.      0.
  15.439   3631.      0.
  15.468   3592.      0.
  15.497   3717.      0.
  15.526   3724.      0.
  15.555   3552.      0.
  15.584   3473.      0.
  15.613   3524.      0.
  15.642   3511.      0.
  15.671   3442.      0.
  15.700   3527.      0.
  15.730   3528.      0.
  15.759   3546.      0.
  15.788   3620.      0.
  15.817   3579.      0.
  15.846   3647.      0.
  15.875   3576.      0.
  15.904   3493.      0.
  15.933   3657.      0.
  15.962   3655.      0.
  15.991   3718.      0.
  16.020   3762.      0.
  16.049   3827.      0.
  16.078   4000.      0.
  16.107   4117.      0.
  16.136   4101.      0.
  16.165   4107.      0.
  16.194   4110.      0.
  16.223   4069.      0.
  16.252   3868.      0.
  16.281   4032.      0.
  16.310   4189.      0.
  16.339   4275.      0.
  16.368   4108.      0.
  16.397   4189.      0.
  16.426   4202.      0.
  16.456   4103.      0.
  16.485   3897.      0.
  16.514   3764.      0.
  16.543   3617.      0.
  16.572   3621.      0.
  16.601   3617.      0.
  16.630   3748.      0.
  16.659   3814.      0.
  16.688   3915.      0.
  16.717   3787.      0.
  16.746   3880.      0.
  16.775   4022.      0.
  16.804   4103.      0.
  16.833   4242.      0.
  16.862   4584.      0.
  16.891   4887.      0.
  16.920   5487.      0.
  16.949   6483.      0.
  16.978   7873.      0.
  17.007   9471.      0.
  17.036  11931.      0.
  17.065  14686.      0.
  17.094  16938.      0.
  17.123  16326.      0.
  17.152  12178.      0.
  17.181   7939.      0.
  17.211   5414.      0.
  17.240   4479.      0.
  17.269   4107.      0.
  17.298   4198.      0.
  17.327   4117.      0.
  17.356   3950.      0.
  17.385   3786.      0.
  17.414   3578.      0.
  17.443   3523.      0.
  17.472   3386.      0.
  17.501   3166.      0.
  17.530   3167.      0.
  17.559   3229.      0.
  17.588   3309.      0.
  17.617   3412.      0.
  17.646   3453.      0.
  17.675   3305.      0.
  17.704   3253.      0.
  17.733   3142.      0.
  17.762   3248.      0.
  17.791   3287.      0.
  17.820   3586.      0.
  17.849   3556.      0.
  17.878   3512.      0.
  17.907   3571.      0.
  17.936   3656.      0.
  17.966   3679.      0.
  17.995   3809.      0.
  18.024   3902.      0.
  18.053   4071.      0.
  18.082   4216.      0.
  18.111   4341.      0.
  18.140   4234.      0.
  18.169   4243.      0.
  18.198   4082.      0.
  18.227   4037.      0.
  18.256   3678.      0.
  18.285   3655.      0.
  18.314   3487.      0.
  18.343   3605.      0.
  18.372   3816.      0.
  18.401   3768.      0.
  18.430   3920.      0.
  18.459   4002.      0.
  18.488   4326.      0.
  18.517   4519.      0.
  18.546   5036.      0.
  18.575   5944.      0.
  18.604   7081.      0.
  18.633   8802.      0.
  18.662  10903.      0.
  18.692  14350.      0.
  18.721  17811.      0.
  18.750  21511.      0.
  18.779  22684.      0.
  18.808  20301.      0.
  18.837  15579.      0.
  18.866  10555.      0.
  18.895   7605.      0.
  18.924   5751.      0.
  18.953   4875.      0.
  18.982   4512.      0.
  19.011   4268.      0.
  19.040   4190.      0.
  19.069   4400.      0.
  19.098   4510.      0.
  19.127   4697.      0.
  19.156   4677.      0.
  19.185   4743.      0.
  19.214   4874.      0.
  19.243   4893.      0.
  19.272   4776.      0.
  19.301   4661.      0.
  19.330   4541.      0.
  19.359   4562.      0.
  19.388   4422.      0.
  19.417   4487.      0.
  19.447   4510.      0.
  19.476   4535.      0.
  19.505   4524.      0.
  19.534   4817.      0.
  19.563   5133.      0.
  19.592   5363.      0.
  19.621   5841.      0.
  19.650   6212.      0.
  19.679   6882.      0.
  19.708   7669.      0.
  19.737   7907.      0.
  19.766   8133.      0.
  19.795   7911.      0.
  19.824   7649.      0.
  19.853   6954.      0.
  19.882   6489.      0.
  19.911   5566.      0.
  19.940   4721.      0.
  19.969   4404.      0.
  19.998   4568.      0.
  20.027   4815.      0.
  20.056   5166.      0.
  20.085   5474.      0.
  20.114   5660.      0.
  20.143   6228.      0.
  20.172   6718.      0.
  20.202   7122.      0.
  20.231   7204.      0.
  20.260   7438.      0.
  20.289   8006.      0.
  20.318   8959.      0.
  20.347  10383.      0.
  20.376  12317.      0.
  20.405  15173.      0.
  20.434  19311.      0.
  20.463  25642.      0.
  20.492  35387.      0.
  20.521  50206.      0.
  20.550  73843.      0.
  20.579 102892.      0.
  20.608 130008.      0.
  20.637 140811.      0.
  20.666 123190.      0.
  20.695  85593.      0.
  20.724  51378.      0.
  20.753  30053.      0.
  20.782  19107.      0.
  20.811  14462.      0.
  20.840  12539.      0.
  20.869  11824.      0.
  20.898  10487.      0.
  20.927   8944.      0.
  20.957   7190.      0.
  20.986   6254.      0.
  21.015   5783.      0.
  21.044   5470.      0.
  21.073   5150.      0.
  21.102   4838.      0.
  21.131   4412.      0.
  21.160   4086.      0.
  21.189   3985.      0.
  21.218   3969.      0.
  21.247   3943.      0.
  21.276   4009.      0.
  21.305   3924.      0.
  21.334   4037.      0.
  21.363   4114.      0.
  21.392   4384.      0.
  21.421   4465.      0.
  21.450   4722.      0.
  21.479   4692.      0.
  21.508   4719.      0.
  21.537   4747.      0.
  21.566   4519.      0.
  21.595   4527.      0.
  21.624   4676.      0.
  21.653   4770.      0.
  21.683   4709.      0.
  21.712   4670.      0.
  21.741   4856.      0.
  21.770   4876.      0.
  21.799   4864.      0.
  21.828   4801.      0.
  21.857   4692.      0.
  21.886   4561.      0.
  21.915   4449.      0.
  21.944   4504.      0.
  21.973   4658.      0.
  22.002   4619.      0.
  22.031   4570.      0.
  22.060   4600.      0.
  22.089   4393.      0.
  22.118   4027.      0.
  22.147   3683.      0.
  22.176   3528.      0.
  22.205   3452.      0.
  22.234   3311.      0.
  22.263   3553.      0.
  22.292   3871.      0.
  22.321   4070.      0.
  22.350   4231.      0.
  22.379   4351.      0.
  22.408   4270.      0.
  22.438   4455.      0.
  22.467   4676.      0.
  22.496   4774.      0.
  22.525   4608.      0.
  22.554   4531.      0.
  22.583   4471.      0.
  22.612   4505.      0.
  22.641   4363.      0.
  22.670   4404.      0.
  22.699   4778.      0.
  22.728   4961.      0.
  22.757   5166.      0.
  22.786   5087.      0.
  22.815   4904.      0.
  22.844   4763.      0.
  22.873   4503.      0.
  22.902   4394.      0.
  22.931   4850.      0.
  22.960   5049.      0.
  22.989   5369.      0.
  23.018   6094.      0.
  23.047   6832.      0.
  23.076   7718.      0.
  23.105   8264.      0.
  23.134   7520.      0.
  23.163   6552.      0.
  23.193   5656.      0.
  23.222   5260.      0.
  23.251   4676.      0.
  23.280   4475.      0.
  23.309   4245.      0.
  23.338   4153.      0.
  23.367   4100.      0.
  23.396   4007.      0.
  23.425   3934.      0.
  23.454   3969.      0.
  23.483   3958.      0.
  23.512   4191.      0.
  23.541   4357.      0.
  23.570   4186.      0.
  23.599   4343.      0.
  23.628   4300.      0.
  23.657   4264.      0.
  23.686   4238.      0.
  23.715   4127.      0.
  23.744   4012.      0.
  23.773   3985.      0.
  23.802   4169.      0.
  23.831   4538.      0.
  23.860   5037.      0.
  23.889   5416.      0.
  23.919   5762.      0.
  23.948   5567.      0.
  23.977   5190.      0.
  24.006   4702.      0.
  24.035   4795.      0.
  24.064   4611.      0.
  24.093   4735.      0.
  24.122   4667.      0.
  24.151   4623.      0.
  24.180   4637.      0.
  24.209   4714.      0.
  24.238   4816.      0.
  24.267   4695.      0.
  24.296   4532.      0.
  24.325   4594.      0.
  24.354   4635.      0.
  24.383   4914.      0.
  24.412   5087.      0.
  24.441   5199.      0.
  24.470   5285.      0.
  24.499   5110.      0.
  24.528   5184.      0.
  24.557   5377.      0.
  24.586   5592.      0.
  24.615   5610.      0.
  24.644   6322.      0.
  24.674   7370.      0.
  24.703   8129.      0.
  24.732   8473.      0.
  24.761   8507.      0.
  24.790   8215.      0.
  24.819   7690.      0.
  24.848   6603.      0.
  24.877   5884.      0.
  24.906   5002.      0.
  24.935   4705.      0.
  24.964   4295.      0.
  24.993   4228.      0.
  25.022   3846.      0.
  25.051   3864.      0.
  25.080   3877.      0.
  25.109   4361.      0.
  25.138   4865.      0.
  25.167   4806.      0.
  25.196   4718.      0.
  25.225   4712.      0.
  25.254   5178.      0.
  25.283   5980.      0.
  25.312   7080.      0.
  25.341   8827.      0.
  25.370  11013.      0.
  25.399  14310.      0.
  25.429  16792.      0.
  25.458  17651.      0.
  25.487  15716.      0.
  25.516  12243.      0.
  25.545   9254.      0.
  25.574   6847.      0.
  25.603   5679.      0.
  25.632   4855.      0.
  25.661   4532.      0.
  25.690   4311.      0.
  25.719   4142.      0.
  25.748   3932.      0.
  25.777   3830.      0.
  25.806   3521.      0.
  25.835   3549.      0.
  25.864   3614.      0.
  25.893   3580.      0.
  25.922   3409.      0.
  25.951   3283.      0.
  25.980   3167.      0.
  26.009   3205.      0.
  26.038   3238.      0.
  26.067   3418.      0.
  26.096   3623.      0.
  26.125   3757.      0.
  26.155   3704.      0.
  26.184   3763.      0.
  26.213   3744.      0.
  26.242   3929.      0.
  26.271   4259.      0.
  26.300   4397.      0.
  26.329   4747.      0.
  26.358   5248.      0.
  26.387   5698.      0.
  26.416   5697.      0.
  26.445   5836.      0.
  26.474   5069.      0.
  26.503   4868.      0.
  26.532   4692.      0.
  26.561   4594.      0.
  26.590   4904.      0.
  26.619   5407.      0.
  26.648   6377.      0.
  26.677   7517.      0.
  26.706   8848.      0.
  26.735   9076.      0.
  26.764   8267.      0.
  26.793   6855.      0.
  26.822   5588.      0.
  26.851   4464.      0.
  26.880   3972.      0.
  26.910   3606.      0.
  26.939   3747.      0.
  26.968   3835.      0.
  26.997   3657.      0.
  27.026   3572.      0.
  27.055   3433.      0.
  27.084   3586.      0.
  27.113   3736.      0.
  27.142   3747.      0.
  27.171   3869.      0.
  27.200   3853.      0.
  27.229   3902.      0.
  27.258   3795.      0.
  27.287   4036.      0.
  27.316   4139.      0.
  27.345   4312.      0.
  27.374   4529.      0.
  27.403   4767.      0.
  27.432   5460.      0.
  27.461   5922.      0.
  27.490   6220.      0.
  27.519   6206.      0.
  27.548   5676.      0.
  27.577   4934.      0.
  27.606   4351.      0.
  27.635   3799.      0.
  27.665   3620.      0.
  27.694   3898.      0.
  27.723   3972.      0.
  27.752   3975.      0.
  27.781   3975.      0.
  27.810   4024.      0.
  27.839   4069.      0.
  27.868   4014.      0.
  27.897   3966.      0.
  27.926   3758.      0.
  27.955   3969.      0.
  27.984   4068.      0.
  28.013   4334.      0.
  28.042   4511.      0.
  28.071   4519.      0.
  28.100   4822.      0.
  28.129   5506.      0.
  28.158   5793.      0.
  28.187   6390.      0.
  28.216   7259.      0.
  28.245   8638.      0.
  28.274  10846.      0.
  28.303  14401.      0.
  28.332  19946.      0.
  28.361  26036.      0.
  28.390  30637.      0.
  28.420  28573.      0.
  28.449  21431.      0.
  28.478  14180.      0.
  28.507   9175.      0.
  28.536   6563.      0.
  28.565   5232.      0.
  28.594   4783.      0.
  28.623   4483.      0.
  28.652   4282.      0.
  28.681   4255.      0.
  28.710   4095.      0.
  28.739   4087.      0.
  28.768   4190.      0.
  28.797   4179.      0.
  28.826   4369.      0.
  28.855   4147.      0.
  28.884   4327.      0.
  28.913   4190.      0.
  28.942   4041.      0.
  28.971   4005.      0.
  29.000   3829.      0.
  29.029   3492.      0.
  29.058   3557.      0.
  29.087   3437.      0.
  29.116   3350.      0.
  29.146   3260.      0.
  29.175   3089.      0.
  29.204   3133.      0.
  29.233   3325.      0.
  29.262   3433.      0.
  29.291   3642.      0.
  29.320   3765.      0.
  29.349   3923.      0.
  29.378   3859.      0.
  29.407   3993.      0.
  29.436   4256.      0.
  29.465   4624.      0.
  29.494   4690.      0.
  29.523   4440.      0.
  29.552   3951.      0.
  29.581   3447.      0.
  29.610   2962.      0.
  29.639   2735.      0.
  29.668   2934.      0.
  29.697   3175.      0.
  29.726   3280.      0.
  29.755   3351.      0.
  29.784   3342.      0.
  29.813   3561.      0.
  29.842   3941.      0.
  29.871   4783.      0.
  29.901   5539.      0.
  29.930   5840.      0.
  29.959   5503.      0.
  29.988   4863.      0.
  30.017   4332.      0.
  30.046   3961.      0.
  30.075   3921.      0.
  30.104   3826.      0.
  30.133   3633.      0.
  30.162   3518.      0.
  30.191   3451.      0.
  30.220   3451.      0.
  30.249   3437.      0.
  30.278   3562.      0.
  30.307   3629.      0.
  30.336   3420.      0.
  30.365   3575.      0.
  30.394   3508.      0.
  30.423   3663.      0.
  30.452   3836.      0.
  30.481   4032.      0.
  30.510   4474.      0.
  30.539   5076.      0.
  30.568   5920.      0.
  30.597   7086.      0.
  30.626   8070.      0.
  30.656   8638.      0.
  30.685   8176.      0.
  30.714   6699.      0.
  30.743   5682.      0.
  30.772   4757.      0.
  30.801   4194.      0.
  30.830   4049.      0.
  30.859   3753.      0.
  30.888   3782.      0.
  30.917   3794.      0.
  30.946   3822.      0.
  30.975   3812.      0.
  31.004   4152.      0.
  31.033   4264.      0.
  31.062   4662.      0.
  31.091   5035.      0.
  31.120   5572.      0.
  31.149   6421.      0.
  31.178   7844.      0.
  31.207   8914.      0.
  31.236   8971.      0.
  31.265   7899.      0.
  31.294   6222.      0.
  31.323   4925.      0.
  31.352   4180.      0.
  31.382   4114.      0.
  31.411   4089.      0.
  31.440   4120.      0.
  31.469   4006.      0.
  31.498   4018.      0.
  31.527   3884.      0.
  31.556   3713.      0.
  31.585   3607.      0.
  31.614   3574.      0.
  31.643   3646.      0.
  31.672   3611.      0.
  31.701   3637.      0.
  31.730   3570.      0.
  31.759   3611.      0.
  31.788   3584.      0.
  31.817   3813.      0.
  31.846   3716.      0.
  31.875   3804.      0.
  31.904   3802.      0.
  31.933   3889.      0.
  31.962   4048.      0.
  31.991   4251.      0.
  32.020   4237.      0.
  32.049   4015.      0.
  32.078   3787.      0.
  32.107   3603.      0.
  32.137   3599.      0.
  32.166   3539.      0.
  32.195   3720.      0.
  32.224   3770.      0.
  32.253   3577.      0.
  32.282   3620.      0.
  32.311   3545.      0.
  32.340   3631.      0.
  32.369   3623.      0.
  32.398   3555.      0.
  32.427   3560.      0.
  32.456   3512.      0.
  32.485   3646.      0.
  32.514   3692.      0.
  32.543   3671.      0.
  32.572   3664.      0.
  32.601   3606.      0.
  32.630   3738.      0.
  32.659   3838.      0.
  32.688   3845.      0.
  32.717   3817.      0.
  32.746   3837.      0.
  32.775   3807.      0.
  32.804   3923.      0.
  32.833   3745.      0.
  32.862   3769.      0.
  32.892   3738.      0.
  32.921   3946.      0.
  32.950   3991.      0.
  32.979   3849.      0.
  33.008   3852.      0.
  33.037   3785.      0.
  33.066   3859.      0.
  33.095   3887.      0.
  33.124   3948.      0.
  33.153   3917.      0.
  33.182   3821.      0.
  33.211   3918.      0.
  33.240   3844.      0.
  33.269   3700.      0.
  33.298   3926.      0.
  33.327   3912.      0.
  33.356   3795.      0.
  33.385   3898.      0.
  33.414   3962.      0.
  33.443   4156.      0.
  33.472   4186.      0.
  33.501   4462.      0.
  33.530   4773.      0.
  33.559   5009.      0.
  33.588   5450.      0.
  33.617   6052.      0.
  33.647   6900.      0.
  33.676   7303.      0.
  33.705   7154.      0.
  33.734   6118.      0.
  33.763   5408.      0.
  33.792   4692.      0.
  33.821   4215.      0.
  33.850   4018.      0.
  33.879   4026.      0.
  33.908   4083.      0.
  33.937   4178.      0.
  33.966   3998.      0.
  33.995   3983.      0.
  34.024   3886.      0.
  34.053   3950.      0.
  34.082   3967.      0.
  34.111   4061.      0.
  34.140   3971.      0.
  34.169   4034.      0.
  34.198   4350.      0.
  34.227   4287.      0.
  34.256   4455.      0.
  34.285   4526.      0.
  34.314   4359.      0.
  34.343   4892.      0.
  34.373   5526.      0.
  34.402   6579.      0.
  34.431   7629.      0.
  34.460   8645.      0.
  34.489   9564.      0.
  34.518  10052.      0.
  34.547   9935.      0.
  34.576   9741.      0.
  34.605  10106.      0.
  34.634  10350.      0.
  34.663  10023.      0.
  34.692   8542.      0.
  34.721   7158.      0.
  34.750   6296.      0.
  34.779   5329.      0.
  34.808   4746.      0.
  34.837   4644.      0.
  34.866   4775.      0.
  34.895   5131.      0.
  34.924   5872.      0.
  34.953   6735.      0.
  34.982   8197.      0.
  35.011  10039.      0.
  35.040  11265.      0.
  35.069  11327.      0.
  35.098  10610.      0.
  35.128   9117.      0.
  35.157   7572.      0.
  35.186   6203.      0.
  35.215   5472.      0.
  35.244   5187.      0.
  35.273   5065.      0.
  35.302   5114.      0.
  35.331   5661.      0.
  35.360   6100.      0.
  35.389   6341.      0.
  35.418   5863.      0.
  35.447   5290.      0.
  35.476   4682.      0.
  35.505   4332.      0.
  35.534   4105.      0.
  35.563   4311.      0.
  35.592   4244.      0.
  35.621   4315.      0.
  35.650   4514.      0.
  35.679   4552.      0.
  35.708   4823.      0.
  35.737   5182.      0.
  35.766   5994.      0.
  35.795   6527.      0.
  35.824   7618.      0.
  35.853   9000.      0.
  35.883  10902.      0.
  35.912  12619.      0.
  35.941  13736.      0.
  35.970  13796.      0.
  35.999  12973.      0.
  36.028  12364.      0.
  36.057  12480.      0.
  36.086  13595.      0.
  36.115  15287.      0.
  36.144  16962.      0.
  36.173  16736.      0.
  36.202  14374.      0.
  36.231  11855.      0.
  36.260  10480.      0.
  36.289   9797.      0.
  36.318   9891.      0.
  36.347  10530.      0.
  36.376  11290.      0.
  36.405  11742.      0.
  36.434  12209.      0.
  36.463  11740.      0.
  36.492  11390.      0.
  36.521  10546.      0.
  36.550  10009.      0.
  36.579  10035.      0.
  36.609   9724.      0.
  36.638   9369.      0.
  36.667   8146.      0.
  36.696   6422.      0.
  36.725   5197.      0.
  36.754   4264.      0.
  36.783   4356.      0.
  36.812   4399.      0.
  36.841   4668.      0.
  36.870   4749.      0.
  36.899   4719.      0.
  36.928   5090.      0.
  36.957   5013.      0.
  36.986   5152.      0.
  37.015   5164.      0.
  37.044   5597.      0.
  37.073   5082.      0.
  37.102   4524.      0.
  37.131   4271.      0.
  37.160   4290.      0.
  37.189   4382.      0.
  37.218   4298.      0.
  37.247   4296.      0.
  37.276   4395.      0.
  37.305   4140.      0.
  37.334   3909.      0.
  37.364   3571.      0.
  37.393   3600.      0.
  37.422   3799.      0.
  37.451   4075.      0.
  37.480   4359.      0.
  37.509   4430.      0.
  37.538   4327.      0.
  37.567   4270.      0.
  37.596   4229.      0.
  37.625   3983.      0.
  37.654   3808.      0.
  37.683   3575.      0.
  37.712   3374.      0.
  37.741   3388.      0.
  37.770   3339.      0.
  37.799   3307.      0.
  37.828   3413.      0.
  37.857   3482.      0.
  37.886   3489.      0.
  37.915   3658.      0.
  37.944   3754.      0.
  37.973   3951.      0.
  38.002   3944.      0.
  38.031   3902.      0.
  38.060   3697.      0.
  38.089   3581.      0.
  38.119   3440.      0.
  38.148   3214.      0.
  38.177   3204.      0.
  38.206   3006.      0.
  38.235   3120.      0.
  38.264   3089.      0.
  38.293   3200.      0.
  38.322   3154.      0.
  38.351   3174.      0.
  38.380   3036.      0.
  38.409   3104.      0.
  38.438   3112.      0.
  38.467   3011.      0.
  38.496   3016.      0.
  38.525   2945.      0.
  38.554   2987.      0.
  38.583   2967.      0.
  38.612   3091.      0.
  38.641   3237.      0.
  38.670   3275.      0.
  38.699   3268.      0.
  38.728   3057.      0.
  38.757   3101.      0.
  38.786   3361.      0.
  38.815   3611.      0.
  38.845   3759.      0.
  38.874   3792.      0.
  38.903   3870.      0.
  38.932   3945.      0.
  38.961   4397.      0.
  38.990   4650.      0.
  39.019   5506.      0.
  39.048   6401.      0.
  39.077   6838.      0.
  39.106   7283.      0.
  39.135   7583.      0.
  39.164   7134.      0.
  39.193   6567.      0.
  39.222   5842.      0.
  39.251   5385.      0.
  39.280   5000.      0.
  39.309   4678.      0.
  39.338   4507.      0.
  39.367   4295.      0.
  39.396   4163.      0.
  39.425   4306.      0.
  39.454   4988.      0.
  39.483   5983.      0.
  39.512   7308.      0.
  39.541   8122.      0.
  39.570   7965.      0.
  39.600   6986.      0.
  39.629   6212.      0.
  39.658   5642.      0.
  39.687   5107.      0.
  39.716   5067.      0.
  39.745   5542.      0.
  39.774   6309.      0.
  39.803   7524.      0.
  39.832   8842.      0.
  39.861   9853.      0.
  39.890   9740.      0.
  39.919   8676.      0.
  39.948   7146.      0.
  39.977   5898.      0.
  40.006   4854.      0.
  40.035   4193.      0.
  40.064   3636.      0.
  40.093   3222.      0.
  40.122   3066.      0.
  40.151   3235.      0.
  40.180   3385.      0.
  40.209   3589.      0.
  40.238   3859.      0.
  40.267   4214.      0.
  40.296   4199.      0.
  40.325   4042.      0.
  40.355   3954.      0.
  40.384   3609.      0.
  40.413   3628.      0.
  40.442   3472.      0.
  40.471   3849.      0.
  40.500   4489.      0.
  40.529   5130.      0.
  40.558   5791.      0.
  40.587   6505.      0.
  40.616   7082.      0.
  40.645   6790.      0.
  40.674   6034.      0.
  40.703   4731.      0.
  40.732   3860.      0.
  40.761   3195.      0.
  40.790   2728.      0.
  40.819   2242.      0.
  40.848   2080.      0.
  40.877   2192.      0.
  40.906   2369.      0.
  40.935   2603.      0.
  40.964   2825.      0.
  40.993   3124.      0.
  41.022   3356.      0.
  41.051   3169.      0.
  41.080   3077.      0.
  41.110   2679.      0.
  41.139   2580.      0.
  41.168   2403.      0.
  41.197   2286.      0.
  41.226   2229.      0.
  41.255   2207.      0.
  41.284   2120.      0.
  41.313   2108.      0.
  41.342   2132.      0.
  41.371   2209.      0.
  41.400   2248.      0.
  41.429   2359.      0.
  41.458   2494.      0.
  41.487   2582.      0.
  41.516   2692.      0.
  41.545   3120.      0.
  41.574   3097.      0.
  41.603   3311.      0.
  41.632   3128.      0.
  41.661   3127.      0.
  41.690   2773.      0.
  41.719   2492.      0.
  41.748   2340.      0.
  41.777   2340.      0.
  41.806   2444.      0.
  41.836   2578.      0.
  41.865   2482.      0.
  41.894   2694.      0.
  41.923   2693.      0.
  41.952   2789.      0.
  41.981   2946.      0.
  42.010   3114.      0.
  42.039   3100.      0.
  42.068   2931.      0.
  42.097   2785.      0.
  42.126   2566.      0.
  42.155   2303.      0.
  42.184   2265.      0.
  42.213   2279.      0.
  42.242   2083.      0.
  42.271   1859.      0.
  42.300   1651.      0.
  42.329   1680.      0.
  42.358   1764.      0.
  42.387   1949.      0.
  42.416   1830.      0.
  42.445   2005.      0.
  42.474   2265.      0.
  42.503   2496.      0.
  42.532   2619.      0.
  42.561   2485.      0.
  42.591   2294.      0.
  42.620   2228.      0.
  42.649   2072.      0.
  42.678   2038.      0.
  42.707   2068.      0.
  42.736   2135.      0.
  42.765   2127.      0.
  42.794   2124.      0.
  42.823   2014.      0.
  42.852   1962.      0.
  42.881   2049.      0.
  42.910   2056.      0.
  42.939   2015.      0.
  42.968   2058.      0.
  42.997   1986.      0.
  43.026   1910.      0.
  43.055   1968.      0.
  43.084   1879.      0.
  43.113   1947.      0.
  43.142   2076.      0.
  43.171   2097.      0.
  43.200   2111.      0.
  43.229   2244.      0.
  43.258   2252.      0.
  43.287   2441.      0.
  43.316   2550.      0.
  43.346   2700.      0.
  43.375   2687.      0.
  43.404   2640.      0.
  43.433   2754.      0.
  43.462   2911.      0.
  43.491   2926.      0.
  43.520   2889.      0.
  43.549   2697.      0.
  43.578   2463.      0.
  43.607   2298.      0.
  43.636   2207.      0.
  43.665   2161.      0.
  43.694   2224.      0.
  43.723   2352.      0.
  43.752   2308.      0.
  43.781   2396.      0.
  43.810   2361.      0.
  43.839   2225.      0.
  43.868   2336.      0.
  43.897   2469.      0.
  43.926   2831.      0.
  43.955   3133.      0.
  43.984   3804.      0.
  44.013   4728.      0.
  44.042   5457.      0.
  44.072   6162.      0.
  44.101   6324.      0.
  44.130   5717.      0.
  44.159   4407.      0.
  44.188   3795.      0.
  44.217   3373.      0.
  44.246   3169.      0.
  44.275   3114.      0.
  44.304   3008.      0.
  44.333   3057.      0.
  44.362   3179.      0.
  44.391   3302.      0.
  44.420   3495.      0.
  44.449   3657.      0.
  44.478   3404.      0.
  44.507   3249.      0.
  44.536   3047.      0.
  44.565   3021.      0.
  44.594   2900.      0.
  44.623   2965.      0.
  44.652   2924.      0.
  44.681   2745.      0.
  44.710   2613.      0.
  44.739   2363.      0.
  44.768   2357.      0.
  44.797   2233.      0.
  44.827   2133.      0.
  44.856   2159.      0.
  44.885   2018.      0.
  44.914   2082.      0.
  44.943   2005.      0.
  44.972   1863.      0.
  45.001   1888.      0.
  45.030   1904.      0.
  45.059   1697.      0.
  45.088   1712.      0.
  45.117   1765.      0.
  45.146   1776.      0.
  45.175   1786.      0.
  45.204   1853.      0.
  45.233   2008.      0.
  45.262   2251.      0.
  45.291   2312.      0.
  45.320   2301.      0.
  45.349   2342.      0.
  45.378   2424.      0.
  45.407   2300.      0.
  45.436   2090.      0.
  45.465   1904.      0.
  45.494   1848.      0.
  45.523   1681.      0.
  45.552   1749.      0.
  45.582   1873.      0.
  45.611   1784.      0.
  45.640   1643.      0.
  45.669   1562.      0.
  45.698   1637.      0.
  45.727   1647.      0.
  45.756   1619.      0.
  45.785   1532.      0.
  45.814   1372.      0.
  45.843   1370.      0.
  45.872   1435.      0.
  45.901   1344.      0.
  45.930   1366.      0.
  45.959   1363.      0.
  45.988   1409.      0.
  46.017   1302.      0.
  46.046   1514.      0.
  46.075   1661.      0.
  46.104   1948.      0.
  46.133   2264.      0.
  46.162   2923.      0.
  46.191   3300.      0.
  46.220   3670.      0.
  46.249   3690.      0.
  46.278   3448.      0.
  46.307   3060.      0.
  46.337   2651.      0.
  46.366   2539.      0.
  46.395   2733.      0.
  46.424   2816.      0.
  46.453   3029.      0.
  46.482   3408.      0.
  46.511   3608.      0.
  46.540   3533.      0.
  46.569   3327.      0.
  46.598   2939.      0.
  46.627   2574.      0.
  46.656   2283.      0.
  46.685   2012.      0.
  46.714   1975.      0.
  46.743   1768.      0.
  46.772   1775.      0.
  46.801   1701.      0.
  46.830   1699.      0.
  46.859   1662.      0.
  46.888   1795.      0.
  46.917   1716.      0.
  46.946   1846.      0.
  46.975   1851.      0.
  47.004   1808.      0.
  47.033   1824.      0.
  47.063   1825.      0.
  47.092   2000.      0.
  47.121   2026.      0.
  47.150   2097.      0.
  47.179   2202.      0.
  47.208   2282.      0.
  47.237   2649.      0.
  47.266   3132.      0.
  47.295   3654.      0.
  47.324   4020.      0.
  47.353   3946.      0.
  47.382   4200.      0.
  47.411   4396.      0.
  47.440   4483.      0.
  47.469   4512.      0.
  47.498   4503.      0.
  47.527   4410.      0.
  47.556   3911.      0.
  47.585   3253.      0.
  47.614   2987.      0.
  47.643   2869.      0.
  47.672   2699.      0.
  47.701   2322.      0.
  47.730   2271.      0.
  47.759   2488.      0.
  47.788   2699.      0.
  47.818   2791.      0.
  47.847   3234.      0.
  47.876   3445.      0.
  47.905   3388.      0.
  47.934   3414.      0.
  47.963   3125.      0.
  47.992   2793.      0.
  48.021   2460.      0.
  48.050   2247.      0.
  48.079   2134.      0.
  48.108   1973.      0.
  48.137   1964.      0.
  48.166   1880.      0.
  48.195   1885.      0.
  48.224   1706.      0.
  48.253   1880.      0.
  48.282   1815.      0.
  48.311   1809.      0.
  48.340   1763.      0.
  48.369   1824.      0.
  48.398   1887.      0.
  48.427   1932.      0.
  48.456   2050.      0.
  48.485   2160.      0.
  48.514   2163.      0.
  48.543   2212.      0.
  48.573   2331.      0.
  48.602   2568.      0.
  48.631   2764.      0.
  48.660   2739.      0.
  48.689   2938.      0.
  48.718   3080.      0.
  48.747   3084.      0.
  48.776   3038.      0.
  48.805   3128.      0.
  48.834   2986.      0.
  48.863   2818.      0.
  48.892   2487.      0.
  48.921   2120.      0.
  48.950   1942.      0.
  48.979   2070.      0.
  49.008   2058.      0.
  49.037   2191.      0.
  49.066   2236.      0.
  49.095   2192.      0.
  49.124   2258.      0.
  49.153   2233.      0.
  49.182   2196.      0.
  49.211   2028.      0.
  49.240   1840.      0.
  49.269   1782.      0.
  49.299   1534.      0.
  49.328   1437.      0.
  49.357   1310.      0.
  49.386   1381.      0.
  49.415   1384.      0.
  49.444   1352.      0.
  49.473   1306.      0.
  49.502   1256.      0.
  49.531   1235.      0.
  49.560   1213.      0.
  49.589   1376.      0.
  49.618   1376.      0.
  49.647   1480.      0.
  49.676   1465.      0.
  49.705   1358.      0.
  49.734   1395.      0.
  49.763   1459.      0.
  49.792   1528.      0.
  49.821   1713.      0.
  49.850   1872.      0.
  49.879   2065.      0.
  49.908   2121.      0.
  49.937   2044.      0.
  49.966   1824.      0.
  49.995   1782.      0.
  50.024   1616.      0.
  50.054   1641.      0.
  50.083   1633.      0.
  50.112   1709.      0.
  50.141   1763.      0.
  50.170   1717.      0.
  50.199   1782.      0.
  50.228   1817.      0.
  50.257   1805.      0.
  50.286   1763.      0.
  50.315   1796.      0.
  50.344   1852.      0.
  50.373   1941.      0.
  50.402   1906.      0.
  50.431   1881.      0.
  50.460   1913.      0.
  50.489   1997.      0.
  50.518   1824.      0.
  50.547   1700.      0.
  50.576   1681.      0.
  50.605   1701.      0.
  50.634   1710.      0.
  50.663   1681.      0.
  50.692   1923.      0.
  50.721   1946.      0.
  50.750   2038.      0.
  50.779   2103.      0.
  50.809   2266.      0.
  50.838   2506.      0.
  50.867   2637.      0.
  50.896   2893.      0.
  50.925   3170.      0.
  50.954   3325.      0.
  50.983   3267.      0.
  51.012   3089.      0.
  51.041   2944.      0.
  51.070   2773.      0.
  51.099   2615.      0.
  51.128   2707.      0.
  51.157   2798.      0.
  51.186   2630.      0.
  51.215   2503.      0.
  51.244   2348.      0.
  51.273   2145.      0.
  51.302   2128.      0.
  51.331   1929.      0.
  51.360   1944.      0.
  51.389   1894.      0.
  51.418   1906.      0.
  51.447   1913.      0.
  51.476   1893.      0.
  51.505   1860.      0.
  51.535   1778.      0.
  51.564   1833.      0.
  51.593   1909.      0.
  51.622   1767.      0.
  51.651   1667.      0.
  51.680   1737.      0.
  51.709   1724.      0.
  51.738   1743.      0.
  51.767   1570.      0.
  51.796   1597.      0.
  51.825   1694.      0.
  51.854   1851.      0.
  51.883   1805.      0.
  51.912   1818.      0.
  51.941   1930.      0.
  51.970   2074.      0.
  51.999   2139.      0.
  52.028   2166.      0.
  52.057   2183.      0.
  52.086   2179.      0.
  52.115   2153.      0.
  52.144   2132.      0.
  52.173   1931.      0.
  52.202   1831.      0.
  52.231   1813.      0.
  52.260   1811.      0.
  52.290   1729.      0.
  52.319   1671.      0.
  52.348   1752.      0.
  52.377   1893.      0.
  52.406   2085.      0.
  52.435   1956.      0.
  52.464   1950.      0.
  52.493   1924.      0.
  52.522   1904.      0.
  52.551   1900.      0.
  52.580   1978.      0.
  52.609   2058.      0.
  52.638   2070.      0.
  52.667   1992.      0.
  52.696   1789.      0.
  52.725   1782.      0.
  52.754   1698.      0.
  52.783   1558.      0.
  52.812   1556.      0.
  52.841   1607.      0.
  52.870   1599.      0.
  52.899   1576.      0.
  52.928   1608.      0.
  52.957   1613.      0.
  52.986   1662.      0.
  53.015   1575.      0.
  53.045   1621.      0.
  53.074   1656.      0.
  53.103   1473.      0.
  53.132   1552.      0.
  53.161   1521.      0.
  53.190   1513.      0.
  53.219   1600.      0.
  53.248   1636.      0.
  53.277   1793.      0.
  53.306   1744.      0.
  53.335   1902.      0.
  53.364   2030.      0.
  53.393   2082.      0.
  53.422   2115.      0.
  53.451   1773.      0.
  53.480   1688.      0.
  53.509   1615.      0.
  53.538   1572.      0.
  53.567   1710.      0.
  53.596   1558.      0.
  53.625   1583.      0.
  53.654   1613.      0.
  53.683   1588.      0.
  53.712   1667.      0.
  53.741   1530.      0.
  53.770   1764.      0.
  53.800   1765.      0.
  53.829   1894.      0.
  53.858   2146.      0.
  53.887   2339.      0.
  53.916   2478.      0.
  53.945   2359.      0.
  53.974   2069.      0.
  54.003   1964.      0.
  54.032   1777.      0.
  54.061   1621.      0.
  54.090   1521.      0.
  54.119   1467.      0.
  54.148   1406.      0.
  54.177   1413.      0.
  54.206   1363.      0.
  54.235   1473.      0.
  54.264   1584.      0.
  54.293   1584.      0.
  54.322   1669.      0.
  54.351   1732.      0.
  54.380   1761.      0.
  54.409   1920.      0.
  54.438   2206.      0.
  54.467   2298.      0.
  54.496   2185.      0.
  54.526   2059.      0.
  54.555   1968.      0.
  54.584   1922.      0.
  54.613   1739.      0.
  54.642   1574.      0.
  54.671   1595.      0.
  54.700   1464.      0.
  54.729   1508.      0.
  54.758   1572.      0.
  54.787   1702.      0.
  54.816   1824.      0.
  54.845   1817.      0.
  54.874   1885.      0.
  54.903   1774.      0.
  54.932   1879.      0.
  54.961   1916.      0.
  54.990   1924.      0.
  55.019   1976.      0.
  55.048   1924.      0.
  55.077   1874.      0.
  55.106   1857.      0.
  55.135   1979.      0.
  55.164   2112.      0.
  55.193   2167.      0.
  55.222   2178.      0.
  55.251   2139.      0.
  55.281   1899.      0.
  55.310   1715.      0.
  55.339   1690.      0.
  55.368   1610.      0.
  55.397   1517.      0.
  55.426   1540.      0.
  55.455   1541.      0.
  55.484   1470.      0.
  55.513   1512.      0.
  55.542   1503.      0.
  55.571   1524.      0.
  55.600   1550.      0.
  55.629   1608.      0.
  55.658   1637.      0.
  55.687   1581.      0.
  55.716   1517.      0.
  55.745   1710.      0.
  55.774   1792.      0.
  55.803   1760.      0.
  55.832   1638.      0.
  55.861   1479.      0.
  55.890   1447.      0.
  55.919   1382.      0.
  55.948   1415.      0.
  55.977   1235.      0.
  56.006   1255.      0.
  56.036   1233.      0.
  56.065   1309.      0.
  56.094   1303.      0.
  56.123   1415.      0.
  56.152   1545.      0.
  56.181   1619.      0.
  56.210   1691.      0.
  56.239   1981.      0.
  56.268   2089.      0.
  56.297   2244.      0.
  56.326   2336.      0.
  56.355   2295.      0.
  56.384   2446.      0.
  56.413   2276.      0.
  56.442   2130.      0.
  56.471   2120.      0.
  56.500   2044.      0.
  56.529   1824.      0.
  56.558   1757.      0.
  56.587   1830.      0.
  56.616   1910.      0.
  56.645   1890.      0.
  56.674   2021.      0.
  56.703   2054.      0.
  56.732   2002.      0.
  56.762   2011.      0.
  56.791   1838.      0.
  56.820   1859.      0.
  56.849   1889.      0.
  56.878   1961.      0.
  56.907   1995.      0.
  56.936   1974.      0.
  56.965   1937.      0.
  56.994   1723.      0.
  57.023   1758.      0.
  57.052   1753.      0.
  57.081   1746.      0.
  57.110   1771.      0.
  57.139   1795.      0.
  57.168   1705.      0.
  57.197   1714.      0.
  57.226   1685.      0.
  57.255   1611.      0.
  57.284   1669.      0.
  57.313   1683.      0.
  57.342   1781.      0.
  57.371   1716.      0.
  57.400   1858.      0.
  57.429   2024.      0.
  57.458   2002.      0.
  57.487   2057.      0.
  57.517   2084.      0.
  57.546   2185.      0.
  57.575   2249.      0.
  57.604   2187.      0.
  57.633   2416.      0.
  57.662   2526.      0.
  57.691   2728.      0.
  57.720   2759.      0.
  57.749   2927.      0.
  57.778   2912.      0.
  57.807   2723.      0.
  57.836   2432.      0.
  57.865   2110.      0.
  57.894   1924.      0.
  57.923   1747.      0.
  57.952   1612.      0.
  57.981   1585.      0.
  58.010   1643.      0.
  58.039   1642.      0.
  58.068   1718.      0.
  58.097   1861.      0.
  58.126   1990.      0.
  58.155   2115.      0.
  58.184   2097.      0.
  58.213   2136.      0.
  58.242   2162.      0.
  58.272   2151.      0.
  58.301   2175.      0.
  58.330   2226.      0.
  58.359   2117.      0.
  58.388   2016.      0.
  58.417   1902.      0.
  58.446   1791.      0.
  58.475   1750.      0.
  58.504   1738.      0.
  58.533   1645.      0.
  58.562   1519.      0.
  58.591   1601.      0.
  58.620   1655.      0.
  58.649   1680.      0.
  58.678   1654.      0.
  58.707   1696.      0.
  58.736   1731.      0.
  58.765   1691.      0.
  58.794   1702.      0.
  58.823   1680.      0.
  58.852   1811.      0.
  58.881   1786.      0.
  58.910   1779.      0.
  58.939   1897.      0.
  58.968   1880.      0.
  58.997   1804.      0.
  59.027   1576.      0.
  59.056   1425.      0.
  59.085   1331.      0.
  59.114   1325.      0.
  59.143   1522.      0.
  59.172   1500.      0.
  59.201   1594.      0.
  59.230   1675.      0.
  59.259   1679.      0.
  59.288   1529.      0.
  59.317   1516.      0.
  59.346   1540.      0.
  59.375   1551.      0.
  59.404   1510.      0.
  59.433   1430.      0.
  59.462   1389.      0.
  59.491   1374.      0.
  59.520   1235.      0.
  59.549   1083.      0.
  59.578   1051.      0.
  59.607   1062.      0.
  59.636    998.      0.
  59.665    984.      0.
  59.694    915.      0.
  59.723    944.      0.
  59.753    893.      0.
  59.782    941.      0.
  59.811    998.      0.
  59.840    927.      0.
  59.869    928.      0.
  59.898    895.      0.
  59.927    887.      0.
  59.956    838.      0.
  59.985    766.      0.
  60.014    765.      0.
  60.043    835.      0.
  60.072    800.      0.
  60.101    845.      0.
  60.130    789.      0.
  60.159    853.      0.
  60.188    868.      0.
  60.217    768.      0.
  60.246    757.      0.
  60.275    639.      0.
  60.304    626.      0.
  60.333    704.      0.
  60.362    650.      0.
  60.391    650.      0.
  60.420    590.      0.
  60.449    570.      0.
  60.478    536.      0.
  60.508    557.      0.
  60.537    571.      0.
  60.566    583.      0.
  60.595    531.      0.
  60.624    550.      0.
  60.653    539.      0.
  60.682    582.      0.
  60.711    603.      0.
  60.740    613.      0.
  60.769    646.      0.
  60.798    625.      0.
  60.827    629.      0.
  60.856    638.      0.
  60.885    657.      0.
  60.914    671.      0.
  60.943    632.      0.
  60.972    687.      0.
  61.001    683.      0.
  61.030    725.      0.
  61.059    708.      0.
  61.088    717.      0.
  61.117    674.      0.
  61.146    711.      0.
  61.175    670.      0.
  61.204    708.      0.
  61.233    699.      0.
  61.263    711.      0.
  61.292    695.      0.
  61.321    626.      0.
  61.350    596.      0.
  61.379    617.      0.
  61.408    597.      0.
  61.437    563.      0.
  61.466    577.      0.
  61.495    576.      0.
  61.524    618.      0.
  61.553    612.      0.
  61.582    605.      0.
  61.611    599.      0.
  61.640    620.      0.
  61.669    631.      0.
  61.698    699.      0.
  61.727    665.      0.
  61.756    685.      0.
  61.785    662.      0.
  61.814    696.      0.
  61.843    714.      0.
  61.872    708.      0.
  61.901    763.      0.
  61.930    821.      0.
  61.959    741.      0.
  61.989    764.      0.
  62.018    780.      0.
  62.047    817.      0.
  62.076    825.      0.
  62.105    738.      0.
  62.134    681.      0.
  62.163    639.      0.
  62.192    565.      0.
  62.221    576.      0.
  62.250    701.      0.
  62.279    800.      0.
  62.308    852.      0.
  62.337    877.      0.
  62.366    823.      0.
  62.395    767.      0.
  62.424    765.      0.
  62.453    786.      0.
  62.482    881.      0.
  62.511    822.      0.
  62.540    817.      0.
  62.569    798.      0.
  62.598    746.      0.
  62.627    802.      0.
  62.656    720.      0.
  62.685    698.      0.
  62.714    628.      0.
  62.744    575.      0.
  62.773    498.      0.
  62.802    554.      0.
  62.831    616.      0.
  62.860    582.      0.
  62.889    633.      0.
  62.918    572.      0.
  62.947    545.      0.
  62.976    591.      0.
  63.005    657.      0.
  63.034    651.      0.
  63.063    736.      0.
  63.092    700.      0.
  63.121    721.      0.
  63.150    713.      0.
  63.179    698.      0.
  63.208    685.      0.
  63.237    584.      0.
  63.266    539.      0.
  63.295    498.      0.
  63.324    559.      0.
  63.353    516.      0.
  63.382    437.      0.
  63.411    480.      0.
  63.440    493.      0.
  63.469    491.      0.
  63.499    491.      0.
  63.528    535.      0.
  63.557    554.      0.
  63.586    546.      0.
  63.615    522.      0.
  63.644    563.      0.
  63.673    582.      0.
  63.702    596.      0.
  63.731    637.      0.
  63.760    680.      0.
  63.789    636.      0.
  63.818    556.      0.
  63.847    530.      0.
  63.876    567.      0.
  63.905    657.      0.
  63.934    566.      0.
  63.963    572.      0.
  63.992    566.      0.
  64.021    541.      0.
  64.050    549.      0.
  64.079    594.      0.
  64.108    568.      0.
  64.137    548.      0.
  64.166    491.      0.
  64.195    480.      0.
  64.225    454.      0.
  64.254    456.      0.
  64.283    506.      0.
  64.312    534.      0.
  64.341    597.      0.
  64.370    585.      0.
  64.399    584.      0.
  64.428    512.      0.
  64.457    469.      0.
  64.486    431.      0.
  64.515    493.      0.
  64.544    523.      0.
  64.573    586.      0.
  64.602    559.      0.
  64.631    602.      0.
  64.660    594.      0.
  64.689    619.      0.
  64.718    609.      0.
  64.747    652.      0.
  64.776    670.      0.
  64.805    747.      0.
  64.834    709.      0.
  64.863    707.      0.
  64.892    688.      0.
  64.921    679.      0.
  64.950    708.      0.
  64.980    641.      0.
  65.009    623.      0.
  65.038    604.      0.
  65.067    570.      0.
  65.096    522.      0.
  65.125    556.      0.
  65.154    573.      0.
  65.183    569.      0.
  65.212    595.      0.
  65.241    474.      0.
  65.270    471.      0.
  65.299    428.      0.
  65.328    441.      0.
  65.357    435.      0.
  65.386    441.      0.
  65.415    457.      0.
  65.444    451.      0.
  65.473    486.      0.
  65.502    492.      0.
  65.531    466.      0.
  65.560    455.      0.
  65.589    508.      0.
  65.618    598.      0.
  65.647    612.      0.
  65.676    579.      0.
  65.705    554.      0.
  65.735    600.      0.
  65.764    591.      0.
  65.793    633.      0.
  65.822    632.      0.
  65.851    653.      0.
  65.880    636.      0.
  65.909    652.      0.
  65.938    609.      0.
  65.967    650.      0.
  65.996    653.      0.
  66.025    670.      0.
  66.054    679.      0.
  66.083    642.      0.
  66.112    673.      0.
  66.141    685.      0.
  66.170    653.      0.
  66.199    677.      0.
  66.228    737.      0.
  66.257    816.      0.
  66.286    794.      0.
  66.315    792.      0.
  66.344    721.      0.
  66.373    678.      0.
  66.402    688.      0.
  66.431    660.      0.
  66.460    648.      0.
  66.490    654.      0.
  66.519    585.      0.
  66.548    579.      0.
  66.577    537.      0.
  66.606    581.      0.
  66.635    591.      0.
  66.664    649.      0.
  66.693    613.      0.
  66.722    641.      0.
  66.751    645.      0.
  66.780    655.      0.
  66.809    749.      0.
  66.838    879.      0.
  66.867    906.      0.
  66.896    972.      0.
  66.925    976.      0.
  66.954    941.      0.
  66.983    991.      0.
  67.012    998.      0.
  67.041   1064.      0.
  67.070   1071.      0.
  67.099   1037.      0.
  67.128    965.      0.
  67.157    972.      0.
  67.186   1057.      0.
  67.216   1053.      0.
  67.245   1074.      0.
  67.274    948.      0.
  67.303    852.      0.
  67.332    852.      0.
  67.361    799.      0.
  67.390    772.      0.
  67.419    814.      0.
  67.448    832.      0.
  67.477    848.      0.
  67.506    768.      0.
  67.535    810.      0.
  67.564    808.      0.
  67.593    779.      0.
  67.622    715.      0.
  67.651    678.      0.
  67.680    644.      0.
  67.709    629.      0.
  67.738    614.      0.
  67.767    643.      0.
  67.796    657.      0.
  67.825    714.      0.
  67.854    732.      0.
  67.883    759.      0.
  67.912    816.      0.
  67.941    793.      0.
  67.971    695.      0.
  68.000    627.      0.
  68.029    630.      0.
  68.058    630.      0.
  68.087    665.      0.
  68.116    647.      0.
  68.145    708.      0.
  68.174    622.      0.
  68.203    607.      0.
  68.232    611.      0.
  68.261    657.      0.
  68.290    584.      0.
  68.319    588.      0.
  68.348    575.      0.
  68.377    578.      0.
  68.406    680.      0.
  68.435    656.      0.
  68.464    638.      0.
  68.493    713.      0.
  68.522    622.      0.
  68.551    562.      0.
  68.580    606.      0.
  68.609    652.      0.
  68.638    678.      0.
  68.667    750.      0.
  68.696    802.      0.
  68.726    848.      0.
  68.755    911.      0.
  68.784    956.      0.
  68.813    969.      0.
  68.842    952.      0.
  68.871    846.      0.
  68.900    889.      0.
  68.929    900.      0.
  68.958    794.      0.
  68.987    783.      0.
  69.016    814.      0.
  69.045    833.      0.
  69.074    798.      0.
  69.103    880.      0.
  69.132    874.      0.
  69.161    792.      0.
  69.190    713.      0.
  69.219    691.      0.
  69.248    661.      0.
  69.277    663.      0.
  69.306    711.      0.
  69.335    771.      0.
  69.364    756.      0.
  69.393    735.      0.
  69.422    821.      0.
  69.452    765.      0.
  69.481    842.      0.
  69.510    879.      0.
  69.539    842.      0.
  69.568    917.      0.
  69.597    959.      0.
  69.626   1015.      0.
  69.655   1040.      0.
  69.684   1116.      0.
  69.713   1098.      0.
  69.742   1069.      0.
  69.771   1096.      0.
  69.800   1036.      0.
  69.829   1089.      0.
  69.858   1096.      0.
  69.887   1207.      0.
  69.916   1204.      0.
  69.945   1301.      0.
  69.974   1418.      0.
  70.003   1575.      0.
  70.032   1613.      0.
  70.061   1640.      0.
  70.090   1619.      0.
  70.119   1803.      0.
  70.148   1760.      0.
  70.177   1769.      0.
  70.207   1912.      0.
  70.236   2077.      0.
  70.265   2142.      0.
  70.294   1980.      0.
  70.323   2015.      0.
  70.352   2071.      0.
  70.381   1946.      0.
  70.410   2028.      0.
  70.439   1950.      0.
  70.468   2014.      0.
  70.497   2058.      0.
  70.526   2095.      0.
  70.555   2005.      0.
  70.584   2145.      0.
  70.613   2028.      0.
  70.642   2109.      0.
  70.671   2151.      0.
  70.700   2146.      0.
  70.729   1945.      0.
  70.758   1828.      0.
  70.787   1632.      0.
  70.816   1526.      0.
  70.845   1576.      0.
  70.874   1484.      0.
  70.903   1590.      0.
  70.932   1610.      0.
  70.962   1622.      0.
  70.991   1658.      0.
  71.020   1622.      0.
  71.049   1731.      0.
  71.078   1668.      0.
  71.107   1601.      0.
  71.136   1700.      0.
  71.165   1651.      0.
  71.194   1560.      0.
  71.223   1441.      0.
  71.252   1439.      0.
  71.281   1400.      0.
  71.310   1369.      0.
  71.339   1343.      0.
  71.368   1367.      0.
  71.397   1456.      0.
  71.426   1392.      0.
  71.455   1348.      0.
  71.484   1229.      0.
  71.513   1217.      0.
  71.542   1336.      0.
  71.571   1272.      0.
  71.600   1381.      0.
  71.629   1331.      0.
  71.658   1316.      0.
  71.687   1266.      0.
  71.717   1144.      0.
  71.746   1241.      0.
  71.775   1386.      0.
  71.804   1479.      0.
  71.833   1390.      0.
  71.862   1354.      0.
  71.891   1404.      0.
  71.920   1373.      0.
  71.949   1292.      0.
  71.978   1230.      0.
  72.007   1236.      0.
  72.036   1270.      0.
  72.065   1358.      0.
  72.094   1289.      0.
  72.123   1249.      0.
  72.152   1314.      0.
  72.181   1273.      0.
  72.210   1311.      0.
  72.239   1318.      0.
  72.268   1329.      0.
  72.297   1348.      0.
  72.326   1307.      0.
  72.355   1326.      0.
  72.384   1373.      0.
  72.413   1357.      0.
  72.443   1325.      0.
  72.472   1349.      0.
  72.501   1403.      0.
  72.530   1378.      0.
  72.559   1366.      0.
  72.588   1314.      0.
  72.617   1358.      0.
  72.646   1353.      0.
  72.675   1455.      0.
  72.704   1487.      0.
  72.733   1534.      0.
  72.762   1575.      0.
  72.791   1685.      0.
  72.820   1671.      0.
  72.849   1736.      0.
  72.878   1613.      0.
  72.907   1673.      0.
  72.936   1709.      0.
  72.965   1710.      0.
  72.994   1699.      0.
  73.023   1697.      0.
  73.052   1808.      0.
  73.081   1718.      0.
  73.110   1846.      0.
  73.139   1894.      0.
  73.168   1904.      0.
  73.198   1871.      0.
  73.227   1796.      0.
  73.256   1834.      0.
  73.285   1868.      0.
  73.314   1730.      0.
  73.343   1747.      0.
  73.372   1636.      0.
  73.401   1614.      0.
  73.430   1606.      0.
  73.459   1503.      0.
  73.488   1541.      0.
  73.517   1506.      0.
  73.546   1494.      0.
  73.575   1440.      0.
  73.604   1442.      0.
  73.633   1399.      0.
  73.662   1355.      0.
  73.691   1398.      0.
  73.720   1453.      0.
  73.749   1489.      0.
  73.778   1549.      0.
  73.807   1573.      0.
  73.836   1572.      0.
  73.865   1590.      0.
  73.894   1607.      0.
  73.923   1705.      0.
  73.953   1754.      0.
  73.982   1871.      0.
  74.011   1826.      0.
  74.040   1921.      0.
  74.069   1927.      0.
  74.098   1994.      0.
  74.127   2048.      0.
  74.156   1992.      0.
  74.185   2114.      0.
  74.214   2303.      0.
  74.243   2313.      0.
  74.272   2284.      0.
  74.301   2406.      0.
  74.330   2358.      0.
  74.359   2102.      0.
  74.388   1954.      0.
  74.417   1819.      0.
  74.446   1705.      0.
  74.475   1599.      0.
  74.504   1659.      0.
  74.533   1668.      0.
  74.562   1578.      0.
  74.591   1593.      0.
  74.620   1525.      0.
  74.649   1558.      0.
  74.679   1599.      0.
  74.708   1554.      0.
  74.737   1554.      0.
  74.766   1641.      0.
  74.795   1581.      0.
  74.824   1650.      0.
  74.853   1522.      0.
  74.882   1545.      0.
  74.911   1670.      0.
  74.940   1673.      0.
  74.969   1639.      0.
  74.998   1700.      0.
  75.027   1751.      0.
  75.056   1740.      0.
  75.085   1664.      0.
  75.114   1519.      0.
  75.143   1241.      0.
  75.172   1369.      0.
  75.201   1568.      0.
  75.230   1622.      0.
  75.259   1553.      0.
  75.288   1434.      0.
  75.317   1491.      0.
  75.346   1545.      0.
  75.375   1669.      0.
  75.404   1628.      0.
  75.434   1506.      0.
  75.463   1645.      0.
  75.492   1619.      0.
  75.521   1687.      0.
  75.550   1685.      0.
  75.579   1733.      0.
  75.608   1776.      0.
  75.637   1889.      0.
  75.666   1795.      0.
  75.695   1815.      0.
  75.724   1816.      0.
  75.753   1808.      0.
  75.782   1855.      0.
  75.811   1943.      0.
  75.840   1969.      0.
  75.869   2002.      0.
  75.898   1949.      0.
  75.927   1941.      0.
  75.956   1897.      0.
  75.985   1846.      0.
  76.014   1801.      0.
  76.043   1734.      0.
  76.072   1814.      0.
  76.101   1866.      0.
  76.130   1908.      0.
  76.159   1864.      0.
  76.189   1888.      0.
  76.218   1880.      0.
  76.247   1917.      0.
  76.276   1864.      0.
  76.305   1855.      0.
  76.334   1719.      0.
  76.363   1699.      0.
  76.392   1703.      0.
  76.421   1613.      0.
  76.450   1648.      0.
  76.479   1522.      0.
  76.508   1567.      0.
  76.537   1547.      0.
  76.566   1634.      0.
  76.595   1693.      0.
  76.624   1747.      0.
  76.653   1766.      0.
  76.682   1873.      0.
  76.711   1722.      0.
  76.740   1834.      0.
  76.769   1791.      0.
  76.798   1793.      0.
  76.827   1767.      0.
  76.856   1746.      0.
  76.885   1915.      0.
  76.915   1969.      0.
  76.944   1996.      0.
  76.973   2100.      0.
  77.002   2107.      0.
  77.031   2206.      0.
  77.060   2230.      0.
  77.089   2240.      0.
  77.118   2254.      0.
  77.147   2228.      0.
  77.176   2135.      0.
  77.205   2033.      0.
  77.234   1890.      0.
  77.263   1819.      0.
  77.292   1832.      0.
  77.321   1802.      0.
  77.350   1821.      0.
  77.379   1754.      0.
  77.408   1825.      0.
  77.437   1820.      0.
  77.466   1729.      0.
  77.495   1725.      0.
  77.524   1817.      0.
  77.553   1704.      0.
  77.582   1729.      0.
  77.611   1691.      0.
  77.640   1596.      0.
  77.670   1638.      0.
  77.699   1649.      0.
  77.728   1549.      0.
  77.757   1628.      0.
  77.786   1704.      0.
  77.815   1862.      0.
  77.844   1975.      0.
  77.873   1906.      0.
  77.902   1941.      0.
  77.931   1957.      0.
  77.960   1936.      0.
  77.989   2160.      0.
  78.018   2144.      0.
  78.047   2180.      0.
  78.076   2223.      0.
  78.105   2290.      0.
  78.134   2172.      0.
  78.163   2131.      0.
  78.192   2108.      0.
  78.221   1879.      0.
  78.250   1908.      0.
  78.279   1830.      0.
  78.308   1849.      0.
  78.337   1804.      0.
  78.366   1718.      0.
  78.395   1806.      0.
  78.425   1849.      0.
  78.454   1835.      0.
  78.483   1944.      0.
  78.512   1997.      0.
  78.541   2054.      0.
  78.570   2032.      0.
  78.599   2034.      0.
  78.628   1913.      0.
  78.657   1972.      0.
  78.686   1948.      0.
  78.715   1980.      0.
  78.744   2016.      0.
  78.773   1860.      0.
  78.802   1703.      0.
  78.831   1618.      0.
  78.860   1588.      0.
  78.889   1570.      0.
  78.918   1580.      0.
  78.947   1507.      0.
  78.976   1578.      0.
  79.005   1461.      0.
  79.034   1599.      0.
  79.063   1535.      0.
  79.092   1665.      0.
  79.121   1639.      0.
  79.150   1604.      0.
  79.180   1604.      0.
  79.209   1606.      0.
  79.238   1652.      0.
  79.267   1663.      0.
  79.296   1627.      0.
  79.325   1645.      0.
  79.354   1599.      0.
  79.383   1676.      0.
  79.412   1644.      0.
  79.441   1582.      0.
  79.470   1591.      0.
  79.499   1621.      0.
  79.528   1577.      0.
  79.557   1682.      0.
  79.586   1678.      0.
  79.615   1683.      0.
  79.644   1676.      0.
  79.673   1710.      0.
  79.702   1777.      0.
  79.731   1752.      0.
  79.760   1784.      0.
  79.789   1776.      0.
  79.818   1774.      0.
  79.847   1854.      0.
  79.876   1758.      0.
  79.906   1652.      0.
  79.935   1644.      0.
  79.964   1688.      0.
  79.993   1666.      0.
  80.022   1676.      0.
  80.051   1641.      0.
  80.080   1572.      0.
  80.109   1747.      0.
  80.138   1746.      0.
  80.167   1730.      0.
  80.196   1729.      0.
  80.225   1675.      0.
  80.254   1544.      0.
  80.283   1601.      0.
  80.312   1602.      0.
  80.341   1530.      0.
  80.370   1678.      0.
  80.399   1752.      0.
  80.428   1753.      0.
  80.457   1723.      0.
  80.486   1661.      0.
  80.515   1590.      0.
  80.544   1576.      0.
  80.573   1626.      0.
  80.602   1684.      0.
  80.631   1558.      0.
  80.661   1511.      0.
  80.690   1459.      0.
  80.719   1385.      0.
  80.748   1348.      0.
  80.777   1380.      0.
  80.806   1374.      0.
  80.835   1457.      0.
  80.864   1390.      0.
  80.893   1521.      0.
  80.922   1492.      0.
  80.951   1505.      0.
  80.980   1505.      0.
  81.009   1595.      0.
  81.038   1587.      0.
  81.067   1573.      0.
  81.096   1510.      0.
  81.125   1550.      0.
  81.154   1507.      0.
  81.183   1571.      0.
  81.212   1511.      0.
  81.241   1523.      0.
  81.270   1412.      0.
  81.299   1331.      0.
  81.328   1333.      0.
  81.357   1356.      0.
  81.386   1407.      0.
  81.416   1324.      0.
  81.445   1298.      0.
  81.474   1294.      0.
  81.503   1309.      0.
  81.532   1349.      0.
  81.561   1346.      0.
  81.590   1344.      0.
  81.619   1216.      0.
  81.648   1175.      0.
  81.677   1155.      0.
  81.706   1145.      0.
  81.735   1115.      0.
  81.764   1073.      0.
  81.793   1009.      0.
  81.822    967.      0.
  81.851    973.      0.
  81.880    952.      0.
  81.909   1073.      0.
  81.938   1057.      0.
  81.967   1079.      0.
  81.996   1049.      0.
  82.025   1056.      0.
  82.054    994.      0.
  82.083   1043.      0.
  82.112   1065.      0.
  82.142   1128.      0.
  82.171   1142.      0.
  82.200   1082.      0.
  82.229   1141.      0.
  82.258   1153.      0.
  82.287   1142.      0.
  82.316   1074.      0.
  82.345   1184.      0.
  82.374   1181.      0.
  82.403   1268.      0.
  82.432   1287.      0.
  82.461   1227.      0.
  82.490   1274.      0.
  82.519   1421.      0.
  82.548   1416.      0.
  82.577   1307.      0.
  82.606   1424.      0.
  82.635   1402.      0.
  82.664   1417.      0.
  82.693   1388.      0.
  82.722   1520.      0.
  82.751   1470.      0.
  82.780   1533.      0.
  82.809   1503.      0.
  82.838   1584.      0.
  82.867   1630.      0.
  82.897   1612.      0.
  82.926   1627.      0.
  82.955   1648.      0.
  82.984   1573.      0.
  83.013   1535.      0.
  83.042   1553.      0.
  83.071   1353.      0.
  83.100   1480.      0.
  83.129   1337.      0.
  83.158   1345.      0.
  83.187   1266.      0.
  83.216   1281.      0.
  83.245   1281.      0.
  83.274   1358.      0.
  83.303   1292.      0.
  83.332   1382.      0.
  83.361   1414.      0.
  83.390   1381.      0.
  83.419   1388.      0.
  83.448   1475.      0.
  83.477   1480.      0.
  83.506   1471.      0.
  83.535   1524.      0.
  83.564   1428.      0.
  83.593   1379.      0.
  83.622   1448.      0.
  83.652   1455.      0.
  83.681   1459.      0.
  83.710   1408.      0.
  83.739   1414.      0.
  83.768   1361.      0.
  83.797   1270.      0.
  83.826   1377.      0.
  83.855   1391.      0.
  83.884   1394.      0.
  83.913   1379.      0.
  83.942   1334.      0.
  83.971   1357.      0.
  84.000   1217.      0.
  84.029   1066.      0.
  84.058   1043.      0.
  84.087   1016.      0.
  84.116   1140.      0.
  84.145   1340.      0.
  84.174   1322.      0.
  84.203   1326.      0.
  84.232   1197.      0.
  84.261   1311.      0.
  84.290   1417.      0.
  84.319   1436.      0.
  84.348   1359.      0.
  84.377   1334.      0.
  84.407   1247.      0.
  84.436   1245.      0.
  84.465   1234.      0.
  84.494   1180.      0.
  84.523   1111.      0.
  84.552   1066.      0.
  84.581   1037.      0.
  84.610    984.      0.
  84.639    887.      0.
  84.668    894.      0.
  84.697    865.      0.
  84.726    842.      0.
  84.755    811.      0.
  84.784    756.      0.
  84.813    682.      0.
  84.842    678.      0.
  84.871    771.      0.
  84.900    782.      0.
  84.929    778.      0.
  84.958    788.      0.
  84.987    752.      0.
  85.016    704.      0.
  85.045    683.      0.
  85.074    738.      0.
  85.103    711.      0.
  85.133    721.      0.
  85.162    687.      0.
  85.191    667.      0.
  85.220    608.      0.
  85.249    598.      0.
  85.278    505.      0.
  85.307    555.      0.
  85.336    567.      0.
  85.365    516.      0.
  85.394    472.      0.
  85.423    504.      0.
  85.452    466.      0.
  85.481    470.      0.
  85.510    480.      0.
  85.539    482.      0.
  85.568    458.      0.
  85.597    455.      0.
  85.626    527.      0.
  85.655    483.      0.
  85.684    549.      0.
  85.713    459.      0.
  85.742    499.      0.
  85.771    468.      0.
  85.800    501.      0.
  85.829    466.      0.
  85.858    466.      0.
  85.888    442.      0.
  85.917    460.      0.
  85.946    451.      0.
  85.975    437.      0.
  86.004    478.      0.
  86.033    486.      0.
  86.062    451.      0.
  86.091    492.      0.
  86.120    567.      0.
  86.149    563.      0.
  86.178    572.      0.
  86.207    639.      0.
  86.236    623.      0.
  86.265    663.      0.
  86.294    655.      0.
  86.323    675.      0.
  86.352    717.      0.
  86.381    689.      0.
  86.410    711.      0.
  86.439    733.      0.
  86.468    740.      0.
  86.497    839.      0.
  86.526    802.      0.
  86.555    762.      0.
  86.584    755.      0.
  86.613    747.      0.
  86.643    745.      0.
  86.672    786.      0.
  86.701    795.      0.
  86.730    830.      0.
  86.759    969.      0.
  86.788   1048.      0.
  86.817   1025.      0.
  86.846   1092.      0.
  86.875   1210.      0.
  86.904   1158.      0.
  86.933   1180.      0.
  86.962   1081.      0.
  86.991   1019.      0.
  87.020   1006.      0.
  87.049    936.      0.
  87.078   1111.      0.
  87.107   1077.      0.
  87.136   1170.      0.
  87.165   1169.      0.
  87.194   1272.      0.
  87.223   1275.      0.
  87.252   1221.      0.
  87.281   1252.      0.
  87.310   1120.      0.
  87.339   1101.      0.
  87.369   1162.      0.
  87.398   1084.      0.
  87.427   1110.      0.
  87.456   1204.      0.
  87.485   1234.      0.
  87.514   1343.      0.
  87.543   1270.      0.
  87.572   1323.      0.
  87.601   1326.      0.
  87.630   1266.      0.
  87.659   1282.      0.
  87.688   1281.      0.
  87.717   1178.      0.
  87.746   1176.      0.
  87.775   1195.      0.
  87.804   1230.      0.
  87.833   1147.      0.
  87.862   1146.      0.
  87.891   1188.      0.
  87.920   1173.      0.
  87.949   1166.      0.
  87.978   1132.      0.
  88.007   1203.      0.
  88.036   1092.      0.
  88.065   1069.      0.
  88.094   1046.      0.
  88.124    985.      0.
  88.153   1015.      0.
  88.182    990.      0.
  88.211    952.      0.
  88.240    949.      0.
  88.269    883.      0.
  88.298    860.      0.
  88.327    790.      0.
  88.356    839.      0.
  88.385    858.      0.
  88.414    869.      0.
  88.443    852.      0.
  88.472    849.      0.
  88.501    870.      0.
  88.530    848.      0.
  88.559    813.      0.
  88.588    787.      0.
  88.617    737.      0.
  88.646    816.      0.
  88.675    834.      0.
  88.704    909.      0.
  88.733    867.      0.
  88.762    859.      0.
  88.791    844.      0.
  88.820    862.      0.
  88.849    816.      0.
  88.879    856.      0.
  88.908    908.      0.
  88.937    797.      0.
  88.966    817.      0.
  88.995    772.      0.
  89.024    748.      0.
  89.053    782.      0.
  89.082    872.      0.
  89.111    883.      0.
  89.140    966.      0.
  89.169    914.      0.
  89.198    980.      0.
  89.227   1000.      0.
  89.256   1017.      0.
  89.285   1005.      0.
  89.314   1017.      0.
  89.343   1037.      0.
  89.372   1002.      0.
  89.401    989.      0.
  89.430    996.      0.
  89.459   1024.      0.
  89.488   1109.      0.
  89.517   1204.      0.
  89.546   1228.      0.
  89.575   1181.      0.
  89.604   1176.      0.
  89.634   1151.      0.
  89.663   1064.      0.
  89.692   1090.      0.
  89.721   1069.      0.
  89.750   1039.      0.
  89.779    983.      0.
  89.808   1018.      0.
  89.837    946.      0.
  89.866    971.      0.
  89.895   1008.      0.
  89.924    982.      0.
  89.953    948.      0.
  89.982    931.      0.
  90.011    906.      0.
  90.040    911.      0.
  90.069    933.      0.
  90.098    960.      0.
  90.127    954.      0.
  90.156    960.      0.
  90.185    943.      0.
  90.214    953.      0.
  90.243   1054.      0.
  90.272    954.      0.
  90.301   1028.      0.
  90.330    900.      0.
  90.360   1001.      0.
  90.389    959.      0.
  90.418   1035.      0.
  90.447    966.      0.
  90.476    969.      0.
  90.505   1046.      0.
  90.534    978.      0.
  90.563    989.      0.
  90.592    916.      0.
  90.621    818.      0.
  90.650    881.      0.
  90.679    823.      0.
  90.708    862.      0.
  90.737    843.      0.
  90.766    805.      0.
  90.795    791.      0.
  90.824    838.      0.
  90.853    865.      0.
  90.882    923.      0.
  90.911    902.      0.
  90.940    809.      0.
  90.969    795.      0.
  90.998    780.      0.
  91.027    818.      0.
  91.056    840.      0.
  91.085    724.      0.
  91.115    815.      0.
  91.144    750.      0.
  91.173    744.      0.
  91.202    754.      0.
  91.231    776.      0.
  91.260    729.      0.
  91.289    701.      0.
  91.318    744.      0.
  91.347    710.      0.
  91.376    784.      0.
  91.405    725.      0.
  91.434    713.      0.
  91.463    743.      0.
  91.492    712.      0.
  91.521    781.      0.
  91.550    751.      0.
  91.579    773.      0.
  91.608    811.      0.
  91.637    863.      0.
  91.666    869.      0.
  91.695    822.      0.
  91.724    755.      0.
  91.753    680.      0.
  91.782    687.      0.
  91.811    661.      0.
  91.840    702.      0.
  91.870    655.      0.
  91.899    629.      0.
  91.928    605.      0.
  91.957    582.      0.
  91.986    590.      0.
  92.015    598.      0.
  92.044    578.      0.
  92.073    555.      0.
  92.102    496.      0.
  92.131    548.      0.
  92.160    526.      0.
  92.189    487.      0.
  92.218    584.      0.
  92.247    550.      0.
  92.276    571.      0.
  92.305    579.      0.
  92.334    589.      0.
  92.363    638.      0.
  92.392    591.      0.
  92.421    580.      0.
  92.450    578.      0.
  92.479    601.      0.
  92.508    664.      0.
  92.537    681.      0.
  92.566    636.      0.
  92.596    555.      0.
  92.625    545.      0.
  92.654    562.      0.
  92.683    520.      0.
  92.712    494.      0.
  92.741    486.      0.
  92.770    514.      0.
  92.799    491.      0.
  92.828    478.      0.
  92.857    471.      0.
  92.886    530.      0.
  92.915    520.      0.
  92.944    505.      0.
  92.973    635.      0.
  93.002    605.      0.
  93.031    666.      0.
  93.060    672.      0.
  93.089    697.      0.
  93.118    610.      0.
  93.147    608.      0.
  93.176    522.      0.
  93.205    555.      0.
  93.234    517.      0.
  93.263    471.      0.
  93.292    472.      0.
  93.321    471.      0.
  93.351    475.      0.
  93.380    462.      0.
  93.409    494.      0.
  93.438    404.      0.
  93.467    402.      0.
  93.496    401.      0.
  93.525    372.      0.
  93.554    381.      0.
  93.583    376.      0.
  93.612    379.      0.
  93.641    404.      0.
  93.670    388.      0.
  93.699    384.      0.
  93.728    380.      0.
  93.757    341.      0.
  93.786    352.      0.
  93.815    354.      0.
  93.844    366.      0.
  93.873    388.      0.
  93.902    355.      0.
  93.931    375.      0.
  93.960    374.      0.
  93.989    370.      0.
  94.018    428.      0.
  94.047    432.      0.
  94.076    490.      0.
  94.106    519.      0.
  94.135    515.      0.
  94.164    536.      0.
  94.193    552.      0.
  94.222    619.      0.
  94.251    703.      0.
  94.280    746.      0.
  94.309    762.      0.
  94.338    758.      0.
  94.367    746.      0.
  94.396    754.      0.
  94.425    763.      0.
  94.454    794.      0.
  94.483    782.      0.
  94.512    787.      0.
  94.541    833.      0.
  94.570    767.      0.
  94.599    779.      0.
  94.628    797.      0.
  94.657    792.      0.
  94.686    803.      0.
  94.715    808.      0.
  94.744    861.      0.
  94.773    858.      0.
  94.802    813.      0.
  94.832    788.      0.
  94.861    826.      0.
  94.890    801.      0.
  94.919    803.      0.
  94.948    777.      0.
  94.977    771.      0.
  95.006    848.      0.
  95.035    826.      0.
  95.064    878.      0.
  95.093    845.      0.
  95.122    799.      0.
  95.151    851.      0.
  95.180    821.      0.
  95.209    808.      0.
  95.238    810.      0.
  95.267    791.      0.
  95.296    751.      0.
  95.325    803.      0.
  95.354    743.      0.
  95.383    758.      0.
  95.412    715.      0.
  95.441    826.      0.
  95.470    767.      0.
  95.499    823.      0.
  95.528    817.      0.
  95.557    788.      0.
  95.587    779.      0.
  95.616    830.      0.
  95.645    831.      0.
  95.674    857.      0.
  95.703    844.      0.
  95.732    822.      0.
  95.761    824.      0.
  95.790    760.      0.
  95.819    764.      0.
  95.848    700.      0.
  95.877    625.      0.
  95.906    546.      0.
  95.935    573.      0.
  95.964    571.      0.
  95.993    645.      0.
  96.022    693.      0.
  96.051    748.      0.
  96.080    703.      0.
  96.109    728.      0.
  96.138    691.      0.
  96.167    782.      0.
  96.196    759.      0.
  96.225    794.      0.
  96.254    815.      0.
  96.283    829.      0.
  96.312    889.      0.
  96.342    885.      0.
  96.371    917.      0.
  96.400    884.      0.
  96.429    909.      0.
  96.458    904.      0.
  96.487    912.      0.
  96.516    919.      0.
  96.545    876.      0.
  96.574    936.      0.
  96.603    957.      0.
  96.632    939.      0.
  96.661    883.      0.
  96.690    862.      0.
  96.719    854.      0.
  96.748    823.      0.
  96.777    879.      0.
  96.806    863.      0.
  96.835    852.      0.
  96.864    903.      0.
  96.893    882.      0.
  96.922    911.      0.
  96.951    945.      0.
  96.980    956.      0.
  97.009    978.      0.
  97.038    863.      0.
  97.067    901.      0.
  97.097    910.      0.
  97.126    944.      0.
  97.155    915.      0.
  97.184    930.      0.
  97.213    962.      0.
  97.242    956.      0.
  97.271   1006.      0.
  97.300   1049.      0.
  97.329   1006.      0.
  97.358    990.      0.
  97.387   1036.      0.
  97.416   1009.      0.
  97.445   1046.      0.
  97.474   1083.      0.
  97.503   1092.      0.
  97.532   1141.      0.
  97.561   1123.      0.
  97.590   1162.      0.
  97.619   1128.      0.
  97.648   1174.      0.
  97.677   1145.      0.
  97.706   1178.      0.
  97.735   1187.      0.
  97.764   1238.      0.
  97.793   1122.      0.
  97.823   1139.      0.
  97.852   1111.      0.
  97.881   1128.      0.
  97.910   1177.      0.
  97.939   1186.      0.
  97.968   1187.      0.
  97.997   1174.      0.
  98.026   1187.      0.
  98.055   1235.      0.
  98.084   1163.      0.
  98.113   1129.      0.
  98.142   1176.      0.
  98.171   1175.      0.
  98.200   1112.      0.
  98.229   1087.      0.
  98.258   1101.      0.
  98.287   1106.      0.
  98.316   1180.      0.
  98.345   1145.      0.
  98.374   1148.      0.
  98.403   1165.      0.
  98.432   1152.      0.
  98.461   1156.      0.
  98.490   1237.      0.
  98.519   1171.      0.
  98.548   1198.      0.
  98.578   1147.      0.
  98.607   1267.      0.
  98.636   1241.      0.
  98.665   1201.      0.
  98.694   1226.      0.
  98.723   1258.      0.
  98.752   1178.      0.
  98.781   1185.      0.
  98.810   1161.      0.
  98.839   1165.      0.
  98.868   1075.      0.
  98.897   1090.      0.
  98.926   1084.      0.
  98.955   1094.      0.
  98.984   1054.      0.
  99.013   1148.      0.
  99.042   1134.      0.
  99.071   1127.      0.
  99.100   1090.      0.
  99.129   1177.      0.
  99.158   1117.      0.
  99.187   1123.      0.
  99.216   1156.      0.
  99.245   1074.      0.
  99.274   1157.      0.
  99.303   1164.      0.
  99.333   1159.      0.
  99.362   1187.      0.
  99.391   1191.      0.
  99.420   1270.      0.
  99.449   1270.      0.
  99.478   1252.      0.
  99.507   1201.      0.
  99.536   1194.      0.
  99.565   1242.      0.
  99.594   1163.      0.
  99.623   1177.      0.
  99.652   1155.      0.
  99.681   1186.      0.
  99.710   1263.      0.
  99.739   1226.      0.
  99.768   1247.      0.
  99.797   1252.      0.
  99.826   1216.      0.
  99.855   1176.      0.
  99.884   1256.      0.
  99.913   1302.      0.
  99.942   1332.      0.
  99.971   1287.      0.
 100.000   1351.      0.
 100.029   1248.      0.
 100.059   1300.      0.
 100.088   1309.      0.
 100.117   1217.      0.
 100.146   1280.      0.
 100.175   1238.      0.
 100.204   1208.      0.
 100.233   1194.      0.
 100.262   1216.      0.
 100.291   1213.      0.
 100.320   1299.      0.
 100.349   1281.      0.
 100.378   1132.      0.
 100.407   1250.      0.
 100.436   1157.      0.
 100.465   1265.      0.
 100.494   1199.      0.
 100.523   1244.      0.
 100.552   1275.      0.
 100.581   1321.      0.
 100.610   1269.      0.
 100.639   1290.      0.
 100.668   1251.      0.
 100.697   1229.      0.
 100.726   1256.      0.
 100.755   1222.      0.
 100.784   1264.      0.
 100.814   1260.      0.
 100.843   1191.      0.
 100.872   1280.      0.
 100.901   1281.      0.
 100.930   1318.      0.
 100.959   1278.      0.
 100.988   1231.      0.
 101.017   1280.      0.
 101.046   1273.      0.
 101.075   1200.      0.
 101.104   1248.      0.
 101.133   1252.      0.
 101.162   1205.      0.
 101.191   1329.      0.
 101.220   1259.      0.
 101.249   1267.      0.
 101.278   1187.      0.
 101.307   1216.      0.
 101.336   1164.      0.
 101.365   1176.      0.
 101.394   1223.      0.
 101.423   1076.      0.
 101.452   1075.      0.
 101.481   1138.      0.
 101.510   1150.      0.
 101.539   1063.      0.
 101.569   1171.      0.
 101.598   1174.      0.
 101.627   1156.      0.
 101.656   1103.      0.
 101.685   1167.      0.
 101.714   1191.      0.
 101.743   1263.      0.
 101.772   1257.      0.
 101.801   1307.      0.
 101.830   1231.      0.
 101.859   1244.      0.
 101.888   1276.      0.
 101.917   1255.      0.
 101.946   1258.      0.
 101.975   1293.      0.
 102.004   1289.      0.
 102.033   1230.      0.
 102.062   1213.      0.
 102.091   1248.      0.
 102.120   1237.      0.
 102.149   1282.      0.
 102.178   1208.      0.
 102.207   1251.      0.
 102.236   1276.      0.
 102.265   1272.      0.
 102.294   1304.      0.
 102.324   1302.      0.
 102.353   1350.      0.
 102.382   1358.      0.
 102.411   1278.      0.
 102.440   1317.      0.
 102.469   1337.      0.
 102.498   1264.      0.
 102.527   1178.      0.
 102.556   1216.      0.
 102.585   1196.      0.
 102.614   1180.      0.
 102.643   1171.      0.
 102.672   1185.      0.
 102.701   1221.      0.
 102.730   1270.      0.
 102.759   1172.      0.
 102.788   1161.      0.
 102.817   1165.      0.
 102.846   1160.      0.
 102.875   1142.      0.
 102.904   1159.      0.
 102.933   1200.      0.
 102.962   1238.      0.
 102.991   1257.      0.
 103.020   1288.      0.
 103.050   1254.      0.
 103.079   1220.      0.
 103.108   1195.      0.
 103.137   1130.      0.
 103.166   1098.      0.
 103.195   1078.      0.
 103.224   1072.      0.
 103.253   1161.      0.
 103.282   1115.      0.
 103.311   1081.      0.
 103.340   1071.      0.
 103.369   1029.      0.
 103.398   1046.      0.
 103.427   1024.      0.
 103.456   1052.      0.
 103.485   1075.      0.
 103.514   1096.      0.
 103.543   1096.      0.
 103.572   1221.      0.
 103.601   1212.      0.
 103.630   1126.      0.
 103.659   1140.      0.
 103.688   1125.      0.
 103.717   1177.      0.
 103.746   1132.      0.
 103.775   1195.      0.
 103.805   1172.      0.
 103.834   1258.      0.
 103.863   1134.      0.
 103.892   1168.      0.
 103.921   1220.      0.
 103.950   1263.      0.
 103.979   1201.      0.
 104.008   1220.      0.
 104.037   1256.      0.
 104.066   1243.      0.
 104.095   1226.      0.
 104.124   1218.      0.
 104.153   1203.      0.
 104.182   1238.      0.
 104.211   1349.      0.
 104.240   1215.      0.
 104.269   1224.      0.
 104.298   1294.      0.
 104.327   1264.      0.
 104.356   1370.      0.
 104.385   1311.      0.
 104.414   1207.      0.
 104.443   1247.      0.
 104.472   1265.      0.
 104.501   1233.      0.
 104.530   1266.      0.
 104.560   1193.      0.
 104.589   1281.      0.
 104.618   1199.      0.
 104.647   1159.      0.
 104.676   1161.      0.
 104.705   1128.      0.
 104.734   1141.      0.
 104.763   1134.      0.
 104.792   1180.      0.
 104.821   1095.      0.
 104.850   1136.      0.
 104.879   1118.      0.
 104.908   1104.      0.
 104.937   1167.      0.
 104.966   1137.      0.
 104.995   1127.      0.
 105.024   1177.      0.
 105.053   1121.      0.
 105.082   1058.      0.
 105.111   1053.      0.
 105.140   1137.      0.
 105.169   1155.      0.
 105.198   1059.      0.
 105.227   1162.      0.
 105.256   1119.      0.
 105.286   1108.      0.
 105.315   1104.      0.
 105.344   1142.      0.
 105.373   1195.      0.
 105.402   1227.      0.
 105.431   1206.      0.
 105.460   1226.      0.
 105.489   1194.      0.
 105.518   1231.      0.
 105.547   1188.      0.
 105.576   1175.      0.
 105.605   1122.      0.
 105.634   1101.      0.
 105.663   1107.      0.
 105.692   1118.      0.
 105.721   1198.      0.
 105.750   1114.      0.
 105.779   1092.      0.
 105.808   1199.      0.
 105.837   1162.      0.
 105.866   1175.      0.
 105.895   1121.      0.
 105.924   1109.      0.
 105.953   1130.      0.
 105.982   1120.      0.
 106.011   1162.      0.
 106.041   1154.      0.
 106.070   1144.      0.
 106.099   1138.      0.
 106.128   1160.      0.
 106.157   1178.      0.
 106.186   1096.      0.
 106.215   1120.      0.
 106.244   1138.      0.
 106.273   1137.      0.
 106.302   1144.      0.
 106.331   1128.      0.
 106.360   1218.      0.
 106.389   1151.      0.
 106.418   1174.      0.
 106.447   1181.      0.
 106.476   1203.      0.
 106.505   1181.      0.
 106.534   1247.      0.
 106.563   1157.      0.
 106.592   1099.      0.
 106.621   1065.      0.
 106.650   1080.      0.
 106.679   1063.      0.
 106.708   1057.      0.
 106.737   1033.      0.
 106.766   1067.      0.
 106.796   1078.      0.
 106.825   1053.      0.
 106.854   1047.      0.
 106.883   1007.      0.
 106.912   1001.      0.
 106.941   1004.      0.
 106.970    992.      0.
 106.999    976.      0.
 107.028    998.      0.
 107.057    907.      0.
 107.086    899.      0.
 107.115    892.      0.
 107.144    931.      0.
 107.173    854.      0.
 107.202    975.      0.
 107.231    978.      0.
 107.260    943.      0.
 107.289    936.      0.
 107.318    920.      0.
 107.347    980.      0.
 107.376    904.      0.
 107.405    984.      0.
 107.434    966.      0.
 107.463    935.      0.
 107.492    896.      0.
 107.522    966.      0.
 107.551    915.      0.
 107.580    884.      0.
 107.609    878.      0.
 107.638    880.      0.
 107.667    943.      0.
 107.696    877.      0.
 107.725    936.      0.
 107.754    854.      0.
 107.783    865.      0.
 107.812    878.      0.
 107.841    978.      0.
 107.870    913.      0.
 107.899    906.      0.
 107.928    905.      0.
 107.957    948.      0.
 107.986    901.      0.
 108.015    820.      0.
 108.044    856.      0.
 108.073    891.      0.
 108.102    882.      0.
 108.131    839.      0.
 108.160    850.      0.
 108.189    823.      0.
 108.218    844.      0.
 108.247    797.      0.
 108.277    841.      0.
 108.306    794.      0.
 108.335    773.      0.
 108.364    722.      0.
 108.393    834.      0.
 108.422    841.      0.
 108.451    804.      0.
 108.480    797.      0.
 108.509    825.      0.
 108.538    821.      0.
 108.567    876.      0.
 108.596    836.      0.
 108.625    903.      0.
 108.654    902.      0.
 108.683    837.      0.
 108.712    849.      0.
 108.741    818.      0.
 108.770    824.      0.
 108.799    860.      0.
 108.828    786.      0.
 108.857    862.      0.
 108.886    817.      0.
 108.915    791.      0.
 108.944    802.      0.
 108.973    794.      0.
 109.002    788.      0.
 109.032    805.      0.
 109.061    830.      0.
 109.090    820.      0.
 109.119    806.      0.
 109.148    805.      0.
 109.177    824.      0.
 109.206    799.      0.
 109.235    876.      0.
 109.264    850.      0.
 109.293    782.      0.
 109.322    820.      0.
 109.351    831.      0.
 109.380    789.      0.
 109.409    829.      0.
 109.438    748.      0.
 109.467    739.      0.
 109.496    771.      0.
 109.525    768.      0.
 109.554    825.      0.
 109.583    835.      0.
 109.612    815.      0.
 109.641    823.      0.
 109.670    775.      0.
 109.699    817.      0.
 109.728    771.      0.
 109.757    803.      0.
 109.787    826.      0.
 109.816    802.      0.
 109.845    779.      0.
 109.874    799.      0.
 109.903    811.      0.
 109.932    712.      0.
 109.961    793.      0.
 109.990    735.      0.
 110.019    788.      0.
 110.048    754.      0.
 110.077    755.      0.
 110.106    757.      0.
 110.135    767.      0.
 110.164    784.      0.
 110.193    800.      0.
 110.222    779.      0.
 110.251    816.      0.
 110.280    820.      0.
 110.309    797.      0.
 110.338    849.      0.
 110.367    856.      0.
 110.396    854.      0.
 110.425    859.      0.
 110.454    827.      0.
 110.483    828.      0.
 110.513    872.      0.
 110.542    890.      0.
 110.571    858.      0.
 110.600    899.      0.
 110.629    885.      0.
 110.658    921.      0.
 110.687    882.      0.
 110.716    898.      0.
 110.745    886.      0.
 110.774    893.      0.
 110.803    821.      0.
 110.832    802.      0.
 110.861    842.      0.
 110.890    858.      0.
 110.919    847.      0.
 110.948    806.      0.
 110.977    876.      0.
 111.006    806.      0.
 111.035    837.      0.
 111.064    826.      0.
 111.093    845.      0.
 111.122    838.      0.
 111.151    857.      0.
 111.180    819.      0.
 111.209    893.      0.
 111.238    862.      0.
 111.268    830.      0.
 111.297    914.      0.
 111.326    887.      0.
 111.355    903.      0.
 111.384    905.      0.
 111.413    922.      0.
 111.442    864.      0.
 111.471    933.      0.
 111.500    951.      0.
 111.529    911.      0.
 111.558    856.      0.
 111.587    873.      0.
 111.616    890.      0.
 111.645    851.      0.
 111.674    839.      0.
 111.703    877.      0.
 111.732    872.      0.
 111.761    879.      0.
 111.790    888.      0.
 111.819    887.      0.
 111.848    847.      0.
 111.877    890.      0.
 111.906    933.      0.
 111.935    942.      0.
 111.964    956.      0.
 111.993    991.      0.
 112.023    994.      0.
 112.052    976.      0.
 112.081   1014.      0.
 112.110   1004.      0.
 112.139   1031.      0.
 112.168    994.      0.
 112.197   1023.      0.
 112.226   1041.      0.
 112.255   1019.      0.
 112.284   1014.      0.
 112.313    928.      0.
 112.342    961.      0.
 112.371    971.      0.
 112.400    989.      0.
 112.429    925.      0.
 112.458    964.      0.
 112.487    967.      0.
 112.516    962.      0.
 112.545    901.      0.
 112.574    961.      0.
 112.603    889.      0.
 112.632    872.      0.
 112.661    903.      0.
 112.690    921.      0.
 112.719    876.      0.
 112.749    866.      0.
 112.778    926.      0.
 112.807    959.      0.
 112.836    953.      0.
 112.865    919.      0.
 112.894    944.      0.
 112.923    940.      0.
 112.952    881.      0.
 112.981    903.      0.
 113.010    909.      0.
 113.039    869.      0.
 113.068    903.      0.
 113.097    843.      0.
 113.126    861.      0.
 113.155    936.      0.
 113.184    853.      0.
 113.213    904.      0.
 113.242    841.      0.
 113.271    900.      0.
 113.300    927.      0.
 113.329    916.      0.
 113.358    928.      0.
 113.387    920.      0.
 113.416    867.      0.
 113.445    887.      0.
 113.474    967.      0.
 113.504    866.      0.
 113.533    923.      0.
 113.562    900.      0.
 113.591    931.      0.
 113.620    915.      0.
 113.649    907.      0.
 113.678    931.      0.
 113.707    891.      0.
 113.736    961.      0.
 113.765    986.      0.
 113.794    994.      0.
 113.823   1006.      0.
 113.852    972.      0.
 113.881    968.      0.
 113.910    951.      0.
 113.939    954.      0.
 113.968    931.      0.
 113.997   1000.      0.
 114.026    971.      0.
 114.055    961.      0.
 114.084   1010.      0.
 114.113    946.      0.
 114.142   1010.      0.
 114.171    959.      0.
 114.200    974.      0.
 114.229    977.      0.
 114.259    933.      0.
 114.288    958.      0.
 114.317    926.      0.
 114.346    902.      0.
 114.375    897.      0.
 114.404    872.      0.
 114.433    842.      0.
 114.462    888.      0.
 114.491    857.      0.
 114.520    934.      0.
 114.549    884.      0.
 114.578    991.      0.
 114.607   1094.      0.
 114.636   1211.      0.
 114.665   1177.      0.
 114.694   1250.      0.
 114.723   1261.      0.
 114.752   1196.      0.
 114.781   1202.      0.
 114.810   1112.      0.
 114.839   1100.      0.
 114.868   1091.      0.
 114.897   1133.      0.
 114.926   1175.      0.
 114.955   1130.      0.
 114.984   1149.      0.
 115.014   1166.      0.
 115.043   1168.      0.
 115.072   1116.      0.
 115.101   1134.      0.
 115.130   1115.      0.
 115.159   1179.      0.
 115.188   1212.      0.
 115.217   1186.      0.
 115.246   1106.      0.
 115.275   1226.      0.
 115.304   1118.      0.
 115.333   1177.      0.
 115.362   1175.      0.
 115.391   1184.      0.
 115.420   1166.      0.
 115.449   1171.      0.
 115.478   1231.      0.
 115.507   1168.      0.
 115.536   1144.      0.
 115.565   1161.      0.
 115.594   1152.      0.
 115.623   1098.      0.
 115.652   1172.      0.
 115.681   1222.      0.
 115.710   1115.      0.
 115.740   1153.      0.
 115.769   1146.      0.
 115.798   1106.      0.
 115.827   1071.      0.
 115.856   1116.      0.
 115.885   1019.      0.
 115.914    973.      0.
 115.943    963.      0.
 115.972    881.      0.
 116.001    872.      0.
 116.030    919.      0.
 116.059    930.      0.
 116.088    893.      0.
 116.117    937.      0.
 116.146    922.      0.
 116.175    893.      0.
 116.204    930.      0.
 116.233    940.      0.
 116.262    891.      0.
 116.291    907.      0.
 116.320    867.      0.
 116.349    872.      0.
 116.378    880.      0.
 116.407    892.      0.
 116.436    892.      0.
 116.465    863.      0.
 116.495    846.      0.
 116.524    868.      0.
 116.553    929.      0.
 116.582    929.      0.
 116.611    906.      0.
 116.640    902.      0.
 116.669    869.      0.
 116.698    924.      0.
 116.727    955.      0.
 116.756    972.      0.
 116.785    940.      0.
 116.814    861.      0.
 116.843    938.      0.
 116.872    930.      0.
 116.901    885.      0.
 116.930    956.      0.
 116.959   1000.      0.
 116.988    997.      0.
 117.017   1015.      0.
 117.046    993.      0.
 117.075   1026.      0.
 117.104   1067.      0.
 117.133   1027.      0.
 117.162   1038.      0.
 117.191   1076.      0.
 117.220   1084.      0.
 117.250   1089.      0.
 117.279   1087.      0.
 117.308   1056.      0.
 117.337   1094.      0.
 117.366   1078.      0.
 117.395   1013.      0.
 117.424    992.      0.
 117.453   1063.      0.
 117.482   1097.      0.
 117.511   1055.      0.
 117.540   1061.      0.
 117.569   1088.      0.
 117.598   1005.      0.
 117.627   1081.      0.
 117.656   1065.      0.
 117.685   1062.      0.
 117.714   1064.      0.
 117.743   1078.      0.
 117.772   1031.      0.
 117.801   1109.      0.
 117.830   1032.      0.
 117.859   1043.      0.
 117.888   1020.      0.
 117.917   1105.      0.
 117.946    994.      0.
 117.976   1069.      0.
 118.005   1043.      0.
 118.034   1049.      0.
 118.063   1013.      0.
 118.092   1097.      0.
 118.121   1062.      0.
 118.150    991.      0.
 118.179   1058.      0.
 118.208   1096.      0.
 118.237   1061.      0.
 118.266   1004.      0.
 118.295    994.      0.
 118.324   1083.      0.
 118.353   1077.      0.
 118.382   1048.      0.
 118.411   1162.      0.
 118.440   1207.      0.
 118.469   1173.      0.
 118.498   1197.      0.
 118.527   1213.      0.
 118.556   1196.      0.
 118.585   1195.      0.
 118.614   1174.      0.
 118.643   1175.      0.
 118.672   1237.      0.
 118.701   1211.      0.
 118.731   1232.      0.
 118.760   1201.      0.
 118.789   1228.      0.
 118.818   1207.      0.
 118.847   1188.      0.
 118.876   1195.      0.
 118.905   1213.      0.
 118.934   1331.      0.
 118.963   1285.      0.
 118.992   1312.      0.
 119.021   1257.      0.
 119.050   1249.      0.
 119.079   1309.      0.
 119.108   1246.      0.
 119.137   1158.      0.
 119.166   1041.      0.
 119.195    802.      0.
 119.224    547.      0.
 119.253    312.      0.
 119.282     76.      0.
 119.311      8.      0.
 119.340      0.      0.
 119.369      0.      0.
 119.398      0.      0.
 119.427      0.      0.
 119.456      0.      0.
 119.486      0.      0.
 119.515      0.      0.
 119.544      0.      0.
 119.573      0.      0.
 119.602      0.      0.
 119.631      0.      0.
 119.660      0.      0.
 119.689      0.      0.
 119.718      0.      0.
 119.747      0.      0.
 119.776      0.      0.
 119.805      0.      0.
 119.834      0.      0.
 119.863      0.      0.
 119.892      0.      0.
 119.921      0.      0.
 119.950      0.      0.
 119.979      0.      0.
 120.008      0.      0.
 120.037      0.      0.
 120.066      0.      0.
 120.095      0.      0.
 120.124      0.      0.
 120.153      0.      0.
 120.182      0.      0.
 120.212      0.      0.
 120.241      0.      0.
 120.270      0.      0.
 120.299      0.      0.
 120.328      0.      0.
 120.357      0.      0.
 120.386      0.      0.
 120.415      0.      0.
 120.444      0.      0.
 120.473      0.      0.
 120.502      0.      0.
 120.531      0.      0.
 120.560      0.      0.
;


_Jana_m95_file
;
commcell 8.803 5.085 9.708 90 97.67 90
commcellesd 0 0 0 0 0 0
trcell
    1.000000    0.000000    0.000000
    0.000000    1.000000    0.000000
    0.000000    0.000000    1.000000
refblock Block1
sourcefile Glucose_Gruppe3.DAT
filedate 16/07/2019 filetime 07:30:38
difcode 112 correspond 1 pwdmethod 0
lambda 1.54059 radtype 1 polarization 2 datcolltemp 293
monangle 13.6416 perfmono 0.5
nlines 4096
end
Data Block1
   1.646      0.      0.
   1.675      0.      0.
   1.704      0.      0.
   1.733      0.      0.
   1.762      0.      0.
   1.791      0.      0.
   1.820      0.      0.
   1.849      0.      0.
   1.878      0.      0.
   1.907      0.      0.
   1.936      0.      0.
   1.965      0.      0.
   1.994      0.      0.
   2.023      0.      0.
   2.052      0.      0.
   2.081      0.      0.
   2.110      0.      0.
   2.139      0.      0.
   2.168      0.      0.
   2.197      0.      0.
   2.226      0.      0.
   2.255      0.      0.
   2.285      0.      0.
   2.314      0.      0.
   2.343      0.      0.
   2.372      0.      0.
   2.401      0.      0.
   2.430      0.      0.
   2.459      0.      0.
   2.488      0.      0.
   2.517     79.      0.
   2.546    196.      0.
   2.575    175.      0.
   2.604    137.      0.
   2.633    158.      0.
   2.662    120.      0.
   2.691    122.      0.
   2.720    137.      0.
   2.749    112.      0.
   2.778    142.      0.
   2.807    134.      0.
   2.836    132.      0.
   2.865    140.      0.
   2.894    193.      0.
   2.923    234.      0.
   2.952    303.      0.
   2.981    378.      0.
   3.010    395.      0.
   3.040    434.      0.
   3.069    490.      0.
   3.098    570.      0.
   3.127    642.      0.
   3.156    691.      0.
   3.185    776.      0.
   3.214    772.      0.
   3.243    851.      0.
   3.272    889.      0.
   3.301    923.      0.
   3.330    976.      0.
   3.359    917.      0.
   3.388   1057.      0.
   3.417   1072.      0.
   3.446   1142.      0.
   3.475   1078.      0.
   3.504   1142.      0.
   3.533   1113.      0.
   3.562   1200.      0.
   3.591   1247.      0.
   3.620   1268.      0.
   3.649   1302.      0.
   3.678   1250.      0.
   3.707   1244.      0.
   3.736   1194.      0.
   3.766   1133.      0.
   3.795   1262.      0.
   3.824   1304.      0.
   3.853   1367.      0.
   3.882   1398.      0.
   3.911   1436.      0.
   3.940   1470.      0.
   3.969   1577.      0.
   3.998   1604.      0.
   4.027   1473.      0.
   4.056   1458.      0.
   4.085   1429.      0.
   4.114   1395.      0.
   4.143   1427.      0.
   4.172   1443.      0.
   4.201   1458.      0.
   4.230   1557.      0.
   4.259   1645.      0.
   4.288   1693.      0.
   4.317   1573.      0.
   4.346   1682.      0.
   4.375   1681.      0.
   4.404   1672.      0.
   4.433   1744.      0.
   4.462   1720.      0.
   4.491   1759.      0.
   4.521   1848.      0.
   4.550   1902.      0.
   4.579   1959.      0.
   4.608   1915.      0.
   4.637   2066.      0.
   4.666   2201.      0.
   4.695   2110.      0.
   4.724   2110.      0.
   4.753   2071.      0.
   4.782   2109.      0.
   4.811   1988.      0.
   4.840   1967.      0.
   4.869   1750.      0.
   4.898   1648.      0.
   4.927   1633.      0.
   4.956   1681.      0.
   4.985   1735.      0.
   5.014   1790.      0.
   5.043   1881.      0.
   5.072   1953.      0.
   5.101   1946.      0.
   5.130   2015.      0.
   5.159   2071.      0.
   5.188   2153.      0.
   5.217   2271.      0.
   5.246   2264.      0.
   5.276   2337.      0.
   5.305   2397.      0.
   5.334   2387.      0.
   5.363   2428.      0.
   5.392   2367.      0.
   5.421   2466.      0.
   5.450   2502.      0.
   5.479   2514.      0.
   5.508   2589.      0.
   5.537   2611.      0.
   5.566   2590.      0.
   5.595   2553.      0.
   5.624   2760.      0.
   5.653   2808.      0.
   5.682   2797.      0.
   5.711   2863.      0.
   5.740   2968.      0.
   5.769   2880.      0.
   5.798   2838.      0.
   5.827   2776.      0.
   5.856   2779.      0.
   5.885   2769.      0.
   5.914   2789.      0.
   5.943   2816.      0.
   5.972   2866.      0.
   6.002   2892.      0.
   6.031   2940.      0.
   6.060   2867.      0.
   6.089   2719.      0.
   6.118   2621.      0.
   6.147   2680.      0.
   6.176   2708.      0.
   6.205   2682.      0.
   6.234   2754.      0.
   6.263   2653.      0.
   6.292   2735.      0.
   6.321   2574.      0.
   6.350   2564.      0.
   6.379   2515.      0.
   6.408   2356.      0.
   6.437   2372.      0.
   6.466   2414.      0.
   6.495   2433.      0.
   6.524   2510.      0.
   6.553   2507.      0.
   6.582   2427.      0.
   6.611   2447.      0.
   6.640   2424.      0.
   6.669   2311.      0.
   6.698   2350.      0.
   6.727   2366.      0.
   6.757   2328.      0.
   6.786   2273.      0.
   6.815   2244.      0.
   6.844   2258.      0.
   6.873   2236.      0.
   6.902   2213.      0.
   6.931   2191.      0.
   6.960   2120.      0.
   6.989   2119.      0.
   7.018   2141.      0.
   7.047   2167.      0.
   7.076   2086.      0.
   7.105   2049.      0.
   7.134   2151.      0.
   7.163   2037.      0.
   7.192   2033.      0.
   7.221   1983.      0.
   7.250   1963.      0.
   7.279   1931.      0.
   7.308   1915.      0.
   7.337   1856.      0.
   7.366   1762.      0.
   7.395   1739.      0.
   7.424   1944.      0.
   7.453   1959.      0.
   7.482   1906.      0.
   7.512   1980.      0.
   7.541   1884.      0.
   7.570   1894.      0.
   7.599   1823.      0.
   7.628   1878.      0.
   7.657   1775.      0.
   7.686   1827.      0.
   7.715   1856.      0.
   7.744   1859.      0.
   7.773   1866.      0.
   7.802   1934.      0.
   7.831   1962.      0.
   7.860   1897.      0.
   7.889   1986.      0.
   7.918   1967.      0.
   7.947   1939.      0.
   7.976   1921.      0.
   8.005   1916.      0.
   8.034   1987.      0.
   8.063   1917.      0.
   8.092   1897.      0.
   8.121   1991.      0.
   8.150   2023.      0.
   8.179   2014.      0.
   8.208   1941.      0.
   8.238   1941.      0.
   8.267   2094.      0.
   8.296   2202.      0.
   8.325   2114.      0.
   8.354   2042.      0.
   8.383   2065.      0.
   8.412   2162.      0.
   8.441   2196.      0.
   8.470   2130.      0.
   8.499   2161.      0.
   8.528   2218.      0.
   8.557   2208.      0.
   8.586   2125.      0.
   8.615   2073.      0.
   8.644   1946.      0.
   8.673   2104.      0.
   8.702   2075.      0.
   8.731   1995.      0.
   8.760   2019.      0.
   8.789   2195.      0.
   8.818   2216.      0.
   8.847   2272.      0.
   8.876   2144.      0.
   8.905   2130.      0.
   8.934   2036.      0.
   8.963   2216.      0.
   8.993   2180.      0.
   9.022   2183.      0.
   9.051   2188.      0.
   9.080   2256.      0.
   9.109   2272.      0.
   9.138   2233.      0.
   9.167   2215.      0.
   9.196   2347.      0.
   9.225   2438.      0.
   9.254   2382.      0.
   9.283   2423.      0.
   9.312   2320.      0.
   9.341   2381.      0.
   9.370   2450.      0.
   9.399   2416.      0.
   9.428   2439.      0.
   9.457   2510.      0.
   9.486   2508.      0.
   9.515   2490.      0.
   9.544   2566.      0.
   9.573   2513.      0.
   9.602   2572.      0.
   9.631   2534.      0.
   9.660   2467.      0.
   9.689   2625.      0.
   9.718   2585.      0.
   9.748   2591.      0.
   9.777   2630.      0.
   9.806   2601.      0.
   9.835   2589.      0.
   9.864   2725.      0.
   9.893   2811.      0.
   9.922   2882.      0.
   9.951   2903.      0.
   9.980   2792.      0.
  10.009   2637.      0.
  10.038   2530.      0.
  10.067   2483.      0.
  10.096   2830.      0.
  10.125   2939.      0.
  10.154   3224.      0.
  10.183   3403.      0.
  10.212   3537.      0.
  10.241   3816.      0.
  10.270   4039.      0.
  10.299   4351.      0.
  10.328   4785.      0.
  10.357   5405.      0.
  10.386   5995.      0.
  10.415   6963.      0.
  10.444   8035.      0.
  10.473   7443.      0.
  10.503   6068.      0.
  10.532   4424.      0.
  10.561   3589.      0.
  10.590   3276.      0.
  10.619   3065.      0.
  10.648   3206.      0.
  10.677   3239.      0.
  10.706   3121.      0.
  10.735   3130.      0.
  10.764   3124.      0.
  10.793   3204.      0.
  10.822   3268.      0.
  10.851   3137.      0.
  10.880   3064.      0.
  10.909   3124.      0.
  10.938   3178.      0.
  10.967   3095.      0.
  10.996   3018.      0.
  11.025   2993.      0.
  11.054   2942.      0.
  11.083   2943.      0.
  11.112   2948.      0.
  11.141   2986.      0.
  11.170   3021.      0.
  11.199   3196.      0.
  11.229   2957.      0.
  11.258   3080.      0.
  11.287   3069.      0.
  11.316   2868.      0.
  11.345   3207.      0.
  11.374   3082.      0.
  11.403   3177.      0.
  11.432   2939.      0.
  11.461   3082.      0.
  11.490   3055.      0.
  11.519   3005.      0.
  11.548   2968.      0.
  11.577   3077.      0.
  11.606   3250.      0.
  11.635   3487.      0.
  11.664   3616.      0.
  11.693   3830.      0.
  11.722   4078.      0.
  11.751   4188.      0.
  11.780   4371.      0.
  11.809   4806.      0.
  11.838   5094.      0.
  11.867   5740.      0.
  11.896   6535.      0.
  11.925   7506.      0.
  11.954   8630.      0.
  11.984   8181.      0.
  12.013   6672.      0.
  12.042   4848.      0.
  12.071   3897.      0.
  12.100   3583.      0.
  12.129   3458.      0.
  12.158   3317.      0.
  12.187   3198.      0.
  12.216   3275.      0.
  12.245   3288.      0.
  12.274   3299.      0.
  12.303   3252.      0.
  12.332   3178.      0.
  12.361   3205.      0.
  12.390   3112.      0.
  12.419   3071.      0.
  12.448   2977.      0.
  12.477   3013.      0.
  12.506   3174.      0.
  12.535   3367.      0.
  12.564   3152.      0.
  12.593   3222.      0.
  12.622   3087.      0.
  12.651   3039.      0.
  12.680   3046.      0.
  12.709   3136.      0.
  12.739   3282.      0.
  12.768   3305.      0.
  12.797   3117.      0.
  12.826   3107.      0.
  12.855   2955.      0.
  12.884   2707.      0.
  12.913   2661.      0.
  12.942   2697.      0.
  12.971   2589.      0.
  13.000   2638.      0.
  13.029   2625.      0.
  13.058   2703.      0.
  13.087   2743.      0.
  13.116   2779.      0.
  13.145   2868.      0.
  13.174   2804.      0.
  13.203   2555.      0.
  13.232   2595.      0.
  13.261   2633.      0.
  13.290   2412.      0.
  13.319   2369.      0.
  13.348   2453.      0.
  13.377   2346.      0.
  13.406   2458.      0.
  13.435   2549.      0.
  13.465   2698.      0.
  13.494   2913.      0.
  13.523   3004.      0.
  13.552   2949.      0.
  13.581   3099.      0.
  13.610   3056.      0.
  13.639   3018.      0.
  13.668   3005.      0.
  13.697   2997.      0.
  13.726   2999.      0.
  13.755   3057.      0.
  13.784   2843.      0.
  13.813   2765.      0.
  13.842   2845.      0.
  13.871   2883.      0.
  13.900   2968.      0.
  13.929   3114.      0.
  13.958   3165.      0.
  13.987   3179.      0.
  14.016   3121.      0.
  14.045   3050.      0.
  14.074   3058.      0.
  14.103   2991.      0.
  14.132   3083.      0.
  14.161   3146.      0.
  14.190   3185.      0.
  14.220   3169.      0.
  14.249   3318.      0.
  14.278   3422.      0.
  14.307   3505.      0.
  14.336   3419.      0.
  14.365   3568.      0.
  14.394   3651.      0.
  14.423   3971.      0.
  14.452   4365.      0.
  14.481   4848.      0.
  14.510   5275.      0.
  14.539   5857.      0.
  14.568   6896.      0.
  14.597   8380.      0.
  14.626  10034.      0.
  14.655  12294.      0.
  14.684  14708.      0.
  14.713  14879.      0.
  14.742  12253.      0.
  14.771   8164.      0.
  14.800   5151.      0.
  14.829   3979.      0.
  14.858   3725.      0.
  14.887   3641.      0.
  14.916   3761.      0.
  14.945   3787.      0.
  14.975   3643.      0.
  15.004   3647.      0.
  15.033   3553.      0.
  15.062   3482.      0.
  15.091   3312.      0.
  15.120   3254.      0.
  15.149   3334.      0.
  15.178   3342.      0.
  15.207   3347.      0.
  15.236   3353.      0.
  15.265   3340.      0.
  15.294   3474.      0.
  15.323   3560.      0.
  15.352   3644.      0.
  15.381   3646.      0.
  15.410   3536.      0.
  15.439   3631.      0.
  15.468   3592.      0.
  15.497   3717.      0.
  15.526   3724.      0.
  15.555   3552.      0.
  15.584   3473.      0.
  15.613   3524.      0.
  15.642   3511.      0.
  15.671   3442.      0.
  15.700   3527.      0.
  15.730   3528.      0.
  15.759   3546.      0.
  15.788   3620.      0.
  15.817   3579.      0.
  15.846   3647.      0.
  15.875   3576.      0.
  15.904   3493.      0.
  15.933   3657.      0.
  15.962   3655.      0.
  15.991   3718.      0.
  16.020   3762.      0.
  16.049   3827.      0.
  16.078   4000.      0.
  16.107   4117.      0.
  16.136   4101.      0.
  16.165   4107.      0.
  16.194   4110.      0.
  16.223   4069.      0.
  16.252   3868.      0.
  16.281   4032.      0.
  16.310   4189.      0.
  16.339   4275.      0.
  16.368   4108.      0.
  16.397   4189.      0.
  16.426   4202.      0.
  16.456   4103.      0.
  16.485   3897.      0.
  16.514   3764.      0.
  16.543   3617.      0.
  16.572   3621.      0.
  16.601   3617.      0.
  16.630   3748.      0.
  16.659   3814.      0.
  16.688   3915.      0.
  16.717   3787.      0.
  16.746   3880.      0.
  16.775   4022.      0.
  16.804   4103.      0.
  16.833   4242.      0.
  16.862   4584.      0.
  16.891   4887.      0.
  16.920   5487.      0.
  16.949   6483.      0.
  16.978   7873.      0.
  17.007   9471.      0.
  17.036  11931.      0.
  17.065  14686.      0.
  17.094  16938.      0.
  17.123  16326.      0.
  17.152  12178.      0.
  17.181   7939.      0.
  17.211   5414.      0.
  17.240   4479.      0.
  17.269   4107.      0.
  17.298   4198.      0.
  17.327   4117.      0.
  17.356   3950.      0.
  17.385   3786.      0.
  17.414   3578.      0.
  17.443   3523.      0.
  17.472   3386.      0.
  17.501   3166.      0.
  17.530   3167.      0.
  17.559   3229.      0.
  17.588   3309.      0.
  17.617   3412.      0.
  17.646   3453.      0.
  17.675   3305.      0.
  17.704   3253.      0.
  17.733   3142.      0.
  17.762   3248.      0.
  17.791   3287.      0.
  17.820   3586.      0.
  17.849   3556.      0.
  17.878   3512.      0.
  17.907   3571.      0.
  17.936   3656.      0.
  17.966   3679.      0.
  17.995   3809.      0.
  18.024   3902.      0.
  18.053   4071.      0.
  18.082   4216.      0.
  18.111   4341.      0.
  18.140   4234.      0.
  18.169   4243.      0.
  18.198   4082.      0.
  18.227   4037.      0.
  18.256   3678.      0.
  18.285   3655.      0.
  18.314   3487.      0.
  18.343   3605.      0.
  18.372   3816.      0.
  18.401   3768.      0.
  18.430   3920.      0.
  18.459   4002.      0.
  18.488   4326.      0.
  18.517   4519.      0.
  18.546   5036.      0.
  18.575   5944.      0.
  18.604   7081.      0.
  18.633   8802.      0.
  18.662  10903.      0.
  18.692  14350.      0.
  18.721  17811.      0.
  18.750  21511.      0.
  18.779  22684.      0.
  18.808  20301.      0.
  18.837  15579.      0.
  18.866  10555.      0.
  18.895   7605.      0.
  18.924   5751.      0.
  18.953   4875.      0.
  18.982   4512.      0.
  19.011   4268.      0.
  19.040   4190.      0.
  19.069   4400.      0.
  19.098   4510.      0.
  19.127   4697.      0.
  19.156   4677.      0.
  19.185   4743.      0.
  19.214   4874.      0.
  19.243   4893.      0.
  19.272   4776.      0.
  19.301   4661.      0.
  19.330   4541.      0.
  19.359   4562.      0.
  19.388   4422.      0.
  19.417   4487.      0.
  19.447   4510.      0.
  19.476   4535.      0.
  19.505   4524.      0.
  19.534   4817.      0.
  19.563   5133.      0.
  19.592   5363.      0.
  19.621   5841.      0.
  19.650   6212.      0.
  19.679   6882.      0.
  19.708   7669.      0.
  19.737   7907.      0.
  19.766   8133.      0.
  19.795   7911.      0.
  19.824   7649.      0.
  19.853   6954.      0.
  19.882   6489.      0.
  19.911   5566.      0.
  19.940   4721.      0.
  19.969   4404.      0.
  19.998   4568.      0.
  20.027   4815.      0.
  20.056   5166.      0.
  20.085   5474.      0.
  20.114   5660.      0.
  20.143   6228.      0.
  20.172   6718.      0.
  20.202   7122.      0.
  20.231   7204.      0.
  20.260   7438.      0.
  20.289   8006.      0.
  20.318   8959.      0.
  20.347  10383.      0.
  20.376  12317.      0.
  20.405  15173.      0.
  20.434  19311.      0.
  20.463  25642.      0.
  20.492  35387.      0.
  20.521  50206.      0.
  20.550  73843.      0.
  20.579 102892.      0.
  20.608 130008.      0.
  20.637 140811.      0.
  20.666 123190.      0.
  20.695  85593.      0.
  20.724  51378.      0.
  20.753  30053.      0.
  20.782  19107.      0.
  20.811  14462.      0.
  20.840  12539.      0.
  20.869  11824.      0.
  20.898  10487.      0.
  20.927   8944.      0.
  20.957   7190.      0.
  20.986   6254.      0.
  21.015   5783.      0.
  21.044   5470.      0.
  21.073   5150.      0.
  21.102   4838.      0.
  21.131   4412.      0.
  21.160   4086.      0.
  21.189   3985.      0.
  21.218   3969.      0.
  21.247   3943.      0.
  21.276   4009.      0.
  21.305   3924.      0.
  21.334   4037.      0.
  21.363   4114.      0.
  21.392   4384.      0.
  21.421   4465.      0.
  21.450   4722.      0.
  21.479   4692.      0.
  21.508   4719.      0.
  21.537   4747.      0.
  21.566   4519.      0.
  21.595   4527.      0.
  21.624   4676.      0.
  21.653   4770.      0.
  21.683   4709.      0.
  21.712   4670.      0.
  21.741   4856.      0.
  21.770   4876.      0.
  21.799   4864.      0.
  21.828   4801.      0.
  21.857   4692.      0.
  21.886   4561.      0.
  21.915   4449.      0.
  21.944   4504.      0.
  21.973   4658.      0.
  22.002   4619.      0.
  22.031   4570.      0.
  22.060   4600.      0.
  22.089   4393.      0.
  22.118   4027.      0.
  22.147   3683.      0.
  22.176   3528.      0.
  22.205   3452.      0.
  22.234   3311.      0.
  22.263   3553.      0.
  22.292   3871.      0.
  22.321   4070.      0.
  22.350   4231.      0.
  22.379   4351.      0.
  22.408   4270.      0.
  22.438   4455.      0.
  22.467   4676.      0.
  22.496   4774.      0.
  22.525   4608.      0.
  22.554   4531.      0.
  22.583   4471.      0.
  22.612   4505.      0.
  22.641   4363.      0.
  22.670   4404.      0.
  22.699   4778.      0.
  22.728   4961.      0.
  22.757   5166.      0.
  22.786   5087.      0.
  22.815   4904.      0.
  22.844   4763.      0.
  22.873   4503.      0.
  22.902   4394.      0.
  22.931   4850.      0.
  22.960   5049.      0.
  22.989   5369.      0.
  23.018   6094.      0.
  23.047   6832.      0.
  23.076   7718.      0.
  23.105   8264.      0.
  23.134   7520.      0.
  23.163   6552.      0.
  23.193   5656.      0.
  23.222   5260.      0.
  23.251   4676.      0.
  23.280   4475.      0.
  23.309   4245.      0.
  23.338   4153.      0.
  23.367   4100.      0.
  23.396   4007.      0.
  23.425   3934.      0.
  23.454   3969.      0.
  23.483   3958.      0.
  23.512   4191.      0.
  23.541   4357.      0.
  23.570   4186.      0.
  23.599   4343.      0.
  23.628   4300.      0.
  23.657   4264.      0.
  23.686   4238.      0.
  23.715   4127.      0.
  23.744   4012.      0.
  23.773   3985.      0.
  23.802   4169.      0.
  23.831   4538.      0.
  23.860   5037.      0.
  23.889   5416.      0.
  23.919   5762.      0.
  23.948   5567.      0.
  23.977   5190.      0.
  24.006   4702.      0.
  24.035   4795.      0.
  24.064   4611.      0.
  24.093   4735.      0.
  24.122   4667.      0.
  24.151   4623.      0.
  24.180   4637.      0.
  24.209   4714.      0.
  24.238   4816.      0.
  24.267   4695.      0.
  24.296   4532.      0.
  24.325   4594.      0.
  24.354   4635.      0.
  24.383   4914.      0.
  24.412   5087.      0.
  24.441   5199.      0.
  24.470   5285.      0.
  24.499   5110.      0.
  24.528   5184.      0.
  24.557   5377.      0.
  24.586   5592.      0.
  24.615   5610.      0.
  24.644   6322.      0.
  24.674   7370.      0.
  24.703   8129.      0.
  24.732   8473.      0.
  24.761   8507.      0.
  24.790   8215.      0.
  24.819   7690.      0.
  24.848   6603.      0.
  24.877   5884.      0.
  24.906   5002.      0.
  24.935   4705.      0.
  24.964   4295.      0.
  24.993   4228.      0.
  25.022   3846.      0.
  25.051   3864.      0.
  25.080   3877.      0.
  25.109   4361.      0.
  25.138   4865.      0.
  25.167   4806.      0.
  25.196   4718.      0.
  25.225   4712.      0.
  25.254   5178.      0.
  25.283   5980.      0.
  25.312   7080.      0.
  25.341   8827.      0.
  25.370  11013.      0.
  25.399  14310.      0.
  25.429  16792.      0.
  25.458  17651.      0.
  25.487  15716.      0.
  25.516  12243.      0.
  25.545   9254.      0.
  25.574   6847.      0.
  25.603   5679.      0.
  25.632   4855.      0.
  25.661   4532.      0.
  25.690   4311.      0.
  25.719   4142.      0.
  25.748   3932.      0.
  25.777   3830.      0.
  25.806   3521.      0.
  25.835   3549.      0.
  25.864   3614.      0.
  25.893   3580.      0.
  25.922   3409.      0.
  25.951   3283.      0.
  25.980   3167.      0.
  26.009   3205.      0.
  26.038   3238.      0.
  26.067   3418.      0.
  26.096   3623.      0.
  26.125   3757.      0.
  26.155   3704.      0.
  26.184   3763.      0.
  26.213   3744.      0.
  26.242   3929.      0.
  26.271   4259.      0.
  26.300   4397.      0.
  26.329   4747.      0.
  26.358   5248.      0.
  26.387   5698.      0.
  26.416   5697.      0.
  26.445   5836.      0.
  26.474   5069.      0.
  26.503   4868.      0.
  26.532   4692.      0.
  26.561   4594.      0.
  26.590   4904.      0.
  26.619   5407.      0.
  26.648   6377.      0.
  26.677   7517.      0.
  26.706   8848.      0.
  26.735   9076.      0.
  26.764   8267.      0.
  26.793   6855.      0.
  26.822   5588.      0.
  26.851   4464.      0.
  26.880   3972.      0.
  26.910   3606.      0.
  26.939   3747.      0.
  26.968   3835.      0.
  26.997   3657.      0.
  27.026   3572.      0.
  27.055   3433.      0.
  27.084   3586.      0.
  27.113   3736.      0.
  27.142   3747.      0.
  27.171   3869.      0.
  27.200   3853.      0.
  27.229   3902.      0.
  27.258   3795.      0.
  27.287   4036.      0.
  27.316   4139.      0.
  27.345   4312.      0.
  27.374   4529.      0.
  27.403   4767.      0.
  27.432   5460.      0.
  27.461   5922.      0.
  27.490   6220.      0.
  27.519   6206.      0.
  27.548   5676.      0.
  27.577   4934.      0.
  27.606   4351.      0.
  27.635   3799.      0.
  27.665   3620.      0.
  27.694   3898.      0.
  27.723   3972.      0.
  27.752   3975.      0.
  27.781   3975.      0.
  27.810   4024.      0.
  27.839   4069.      0.
  27.868   4014.      0.
  27.897   3966.      0.
  27.926   3758.      0.
  27.955   3969.      0.
  27.984   4068.      0.
  28.013   4334.      0.
  28.042   4511.      0.
  28.071   4519.      0.
  28.100   4822.      0.
  28.129   5506.      0.
  28.158   5793.      0.
  28.187   6390.      0.
  28.216   7259.      0.
  28.245   8638.      0.
  28.274  10846.      0.
  28.303  14401.      0.
  28.332  19946.      0.
  28.361  26036.      0.
  28.390  30637.      0.
  28.420  28573.      0.
  28.449  21431.      0.
  28.478  14180.      0.
  28.507   9175.      0.
  28.536   6563.      0.
  28.565   5232.      0.
  28.594   4783.      0.
  28.623   4483.      0.
  28.652   4282.      0.
  28.681   4255.      0.
  28.710   4095.      0.
  28.739   4087.      0.
  28.768   4190.      0.
  28.797   4179.      0.
  28.826   4369.      0.
  28.855   4147.      0.
  28.884   4327.      0.
  28.913   4190.      0.
  28.942   4041.      0.
  28.971   4005.      0.
  29.000   3829.      0.
  29.029   3492.      0.
  29.058   3557.      0.
  29.087   3437.      0.
  29.116   3350.      0.
  29.146   3260.      0.
  29.175   3089.      0.
  29.204   3133.      0.
  29.233   3325.      0.
  29.262   3433.      0.
  29.291   3642.      0.
  29.320   3765.      0.
  29.349   3923.      0.
  29.378   3859.      0.
  29.407   3993.      0.
  29.436   4256.      0.
  29.465   4624.      0.
  29.494   4690.      0.
  29.523   4440.      0.
  29.552   3951.      0.
  29.581   3447.      0.
  29.610   2962.      0.
  29.639   2735.      0.
  29.668   2934.      0.
  29.697   3175.      0.
  29.726   3280.      0.
  29.755   3351.      0.
  29.784   3342.      0.
  29.813   3561.      0.
  29.842   3941.      0.
  29.871   4783.      0.
  29.901   5539.      0.
  29.930   5840.      0.
  29.959   5503.      0.
  29.988   4863.      0.
  30.017   4332.      0.
  30.046   3961.      0.
  30.075   3921.      0.
  30.104   3826.      0.
  30.133   3633.      0.
  30.162   3518.      0.
  30.191   3451.      0.
  30.220   3451.      0.
  30.249   3437.      0.
  30.278   3562.      0.
  30.307   3629.      0.
  30.336   3420.      0.
  30.365   3575.      0.
  30.394   3508.      0.
  30.423   3663.      0.
  30.452   3836.      0.
  30.481   4032.      0.
  30.510   4474.      0.
  30.539   5076.      0.
  30.568   5920.      0.
  30.597   7086.      0.
  30.626   8070.      0.
  30.656   8638.      0.
  30.685   8176.      0.
  30.714   6699.      0.
  30.743   5682.      0.
  30.772   4757.      0.
  30.801   4194.      0.
  30.830   4049.      0.
  30.859   3753.      0.
  30.888   3782.      0.
  30.917   3794.      0.
  30.946   3822.      0.
  30.975   3812.      0.
  31.004   4152.      0.
  31.033   4264.      0.
  31.062   4662.      0.
  31.091   5035.      0.
  31.120   5572.      0.
  31.149   6421.      0.
  31.178   7844.      0.
  31.207   8914.      0.
  31.236   8971.      0.
  31.265   7899.      0.
  31.294   6222.      0.
  31.323   4925.      0.
  31.352   4180.      0.
  31.382   4114.      0.
  31.411   4089.      0.
  31.440   4120.      0.
  31.469   4006.      0.
  31.498   4018.      0.
  31.527   3884.      0.
  31.556   3713.      0.
  31.585   3607.      0.
  31.614   3574.      0.
  31.643   3646.      0.
  31.672   3611.      0.
  31.701   3637.      0.
  31.730   3570.      0.
  31.759   3611.      0.
  31.788   3584.      0.
  31.817   3813.      0.
  31.846   3716.      0.
  31.875   3804.      0.
  31.904   3802.      0.
  31.933   3889.      0.
  31.962   4048.      0.
  31.991   4251.      0.
  32.020   4237.      0.
  32.049   4015.      0.
  32.078   3787.      0.
  32.107   3603.      0.
  32.137   3599.      0.
  32.166   3539.      0.
  32.195   3720.      0.
  32.224   3770.      0.
  32.253   3577.      0.
  32.282   3620.      0.
  32.311   3545.      0.
  32.340   3631.      0.
  32.369   3623.      0.
  32.398   3555.      0.
  32.427   3560.      0.
  32.456   3512.      0.
  32.485   3646.      0.
  32.514   3692.      0.
  32.543   3671.      0.
  32.572   3664.      0.
  32.601   3606.      0.
  32.630   3738.      0.
  32.659   3838.      0.
  32.688   3845.      0.
  32.717   3817.      0.
  32.746   3837.      0.
  32.775   3807.      0.
  32.804   3923.      0.
  32.833   3745.      0.
  32.862   3769.      0.
  32.892   3738.      0.
  32.921   3946.      0.
  32.950   3991.      0.
  32.979   3849.      0.
  33.008   3852.      0.
  33.037   3785.      0.
  33.066   3859.      0.
  33.095   3887.      0.
  33.124   3948.      0.
  33.153   3917.      0.
  33.182   3821.      0.
  33.211   3918.      0.
  33.240   3844.      0.
  33.269   3700.      0.
  33.298   3926.      0.
  33.327   3912.      0.
  33.356   3795.      0.
  33.385   3898.      0.
  33.414   3962.      0.
  33.443   4156.      0.
  33.472   4186.      0.
  33.501   4462.      0.
  33.530   4773.      0.
  33.559   5009.      0.
  33.588   5450.      0.
  33.617   6052.      0.
  33.647   6900.      0.
  33.676   7303.      0.
  33.705   7154.      0.
  33.734   6118.      0.
  33.763   5408.      0.
  33.792   4692.      0.
  33.821   4215.      0.
  33.850   4018.      0.
  33.879   4026.      0.
  33.908   4083.      0.
  33.937   4178.      0.
  33.966   3998.      0.
  33.995   3983.      0.
  34.024   3886.      0.
  34.053   3950.      0.
  34.082   3967.      0.
  34.111   4061.      0.
  34.140   3971.      0.
  34.169   4034.      0.
  34.198   4350.      0.
  34.227   4287.      0.
  34.256   4455.      0.
  34.285   4526.      0.
  34.314   4359.      0.
  34.343   4892.      0.
  34.373   5526.      0.
  34.402   6579.      0.
  34.431   7629.      0.
  34.460   8645.      0.
  34.489   9564.      0.
  34.518  10052.      0.
  34.547   9935.      0.
  34.576   9741.      0.
  34.605  10106.      0.
  34.634  10350.      0.
  34.663  10023.      0.
  34.692   8542.      0.
  34.721   7158.      0.
  34.750   6296.      0.
  34.779   5329.      0.
  34.808   4746.      0.
  34.837   4644.      0.
  34.866   4775.      0.
  34.895   5131.      0.
  34.924   5872.      0.
  34.953   6735.      0.
  34.982   8197.      0.
  35.011  10039.      0.
  35.040  11265.      0.
  35.069  11327.      0.
  35.098  10610.      0.
  35.128   9117.      0.
  35.157   7572.      0.
  35.186   6203.      0.
  35.215   5472.      0.
  35.244   5187.      0.
  35.273   5065.      0.
  35.302   5114.      0.
  35.331   5661.      0.
  35.360   6100.      0.
  35.389   6341.      0.
  35.418   5863.      0.
  35.447   5290.      0.
  35.476   4682.      0.
  35.505   4332.      0.
  35.534   4105.      0.
  35.563   4311.      0.
  35.592   4244.      0.
  35.621   4315.      0.
  35.650   4514.      0.
  35.679   4552.      0.
  35.708   4823.      0.
  35.737   5182.      0.
  35.766   5994.      0.
  35.795   6527.      0.
  35.824   7618.      0.
  35.853   9000.      0.
  35.883  10902.      0.
  35.912  12619.      0.
  35.941  13736.      0.
  35.970  13796.      0.
  35.999  12973.      0.
  36.028  12364.      0.
  36.057  12480.      0.
  36.086  13595.      0.
  36.115  15287.      0.
  36.144  16962.      0.
  36.173  16736.      0.
  36.202  14374.      0.
  36.231  11855.      0.
  36.260  10480.      0.
  36.289   9797.      0.
  36.318   9891.      0.
  36.347  10530.      0.
  36.376  11290.      0.
  36.405  11742.      0.
  36.434  12209.      0.
  36.463  11740.      0.
  36.492  11390.      0.
  36.521  10546.      0.
  36.550  10009.      0.
  36.579  10035.      0.
  36.609   9724.      0.
  36.638   9369.      0.
  36.667   8146.      0.
  36.696   6422.      0.
  36.725   5197.      0.
  36.754   4264.      0.
  36.783   4356.      0.
  36.812   4399.      0.
  36.841   4668.      0.
  36.870   4749.      0.
  36.899   4719.      0.
  36.928   5090.      0.
  36.957   5013.      0.
  36.986   5152.      0.
  37.015   5164.      0.
  37.044   5597.      0.
  37.073   5082.      0.
  37.102   4524.      0.
  37.131   4271.      0.
  37.160   4290.      0.
  37.189   4382.      0.
  37.218   4298.      0.
  37.247   4296.      0.
  37.276   4395.      0.
  37.305   4140.      0.
  37.334   3909.      0.
  37.364   3571.      0.
  37.393   3600.      0.
  37.422   3799.      0.
  37.451   4075.      0.
  37.480   4359.      0.
  37.509   4430.      0.
  37.538   4327.      0.
  37.567   4270.      0.
  37.596   4229.      0.
  37.625   3983.      0.
  37.654   3808.      0.
  37.683   3575.      0.
  37.712   3374.      0.
  37.741   3388.      0.
  37.770   3339.      0.
  37.799   3307.      0.
  37.828   3413.      0.
  37.857   3482.      0.
  37.886   3489.      0.
  37.915   3658.      0.
  37.944   3754.      0.
  37.973   3951.      0.
  38.002   3944.      0.
  38.031   3902.      0.
  38.060   3697.      0.
  38.089   3581.      0.
  38.119   3440.      0.
  38.148   3214.      0.
  38.177   3204.      0.
  38.206   3006.      0.
  38.235   3120.      0.
  38.264   3089.      0.
  38.293   3200.      0.
  38.322   3154.      0.
  38.351   3174.      0.
  38.380   3036.      0.
  38.409   3104.      0.
  38.438   3112.      0.
  38.467   3011.      0.
  38.496   3016.      0.
  38.525   2945.      0.
  38.554   2987.      0.
  38.583   2967.      0.
  38.612   3091.      0.
  38.641   3237.      0.
  38.670   3275.      0.
  38.699   3268.      0.
  38.728   3057.      0.
  38.757   3101.      0.
  38.786   3361.      0.
  38.815   3611.      0.
  38.845   3759.      0.
  38.874   3792.      0.
  38.903   3870.      0.
  38.932   3945.      0.
  38.961   4397.      0.
  38.990   4650.      0.
  39.019   5506.      0.
  39.048   6401.      0.
  39.077   6838.      0.
  39.106   7283.      0.
  39.135   7583.      0.
  39.164   7134.      0.
  39.193   6567.      0.
  39.222   5842.      0.
  39.251   5385.      0.
  39.280   5000.      0.
  39.309   4678.      0.
  39.338   4507.      0.
  39.367   4295.      0.
  39.396   4163.      0.
  39.425   4306.      0.
  39.454   4988.      0.
  39.483   5983.      0.
  39.512   7308.      0.
  39.541   8122.      0.
  39.570   7965.      0.
  39.600   6986.      0.
  39.629   6212.      0.
  39.658   5642.      0.
  39.687   5107.      0.
  39.716   5067.      0.
  39.745   5542.      0.
  39.774   6309.      0.
  39.803   7524.      0.
  39.832   8842.      0.
  39.861   9853.      0.
  39.890   9740.      0.
  39.919   8676.      0.
  39.948   7146.      0.
  39.977   5898.      0.
  40.006   4854.      0.
  40.035   4193.      0.
  40.064   3636.      0.
  40.093   3222.      0.
  40.122   3066.      0.
  40.151   3235.      0.
  40.180   3385.      0.
  40.209   3589.      0.
  40.238   3859.      0.
  40.267   4214.      0.
  40.296   4199.      0.
  40.325   4042.      0.
  40.355   3954.      0.
  40.384   3609.      0.
  40.413   3628.      0.
  40.442   3472.      0.
  40.471   3849.      0.
  40.500   4489.      0.
  40.529   5130.      0.
  40.558   5791.      0.
  40.587   6505.      0.
  40.616   7082.      0.
  40.645   6790.      0.
  40.674   6034.      0.
  40.703   4731.      0.
  40.732   3860.      0.
  40.761   3195.      0.
  40.790   2728.      0.
  40.819   2242.      0.
  40.848   2080.      0.
  40.877   2192.      0.
  40.906   2369.      0.
  40.935   2603.      0.
  40.964   2825.      0.
  40.993   3124.      0.
  41.022   3356.      0.
  41.051   3169.      0.
  41.080   3077.      0.
  41.110   2679.      0.
  41.139   2580.      0.
  41.168   2403.      0.
  41.197   2286.      0.
  41.226   2229.      0.
  41.255   2207.      0.
  41.284   2120.      0.
  41.313   2108.      0.
  41.342   2132.      0.
  41.371   2209.      0.
  41.400   2248.      0.
  41.429   2359.      0.
  41.458   2494.      0.
  41.487   2582.      0.
  41.516   2692.      0.
  41.545   3120.      0.
  41.574   3097.      0.
  41.603   3311.      0.
  41.632   3128.      0.
  41.661   3127.      0.
  41.690   2773.      0.
  41.719   2492.      0.
  41.748   2340.      0.
  41.777   2340.      0.
  41.806   2444.      0.
  41.836   2578.      0.
  41.865   2482.      0.
  41.894   2694.      0.
  41.923   2693.      0.
  41.952   2789.      0.
  41.981   2946.      0.
  42.010   3114.      0.
  42.039   3100.      0.
  42.068   2931.      0.
  42.097   2785.      0.
  42.126   2566.      0.
  42.155   2303.      0.
  42.184   2265.      0.
  42.213   2279.      0.
  42.242   2083.      0.
  42.271   1859.      0.
  42.300   1651.      0.
  42.329   1680.      0.
  42.358   1764.      0.
  42.387   1949.      0.
  42.416   1830.      0.
  42.445   2005.      0.
  42.474   2265.      0.
  42.503   2496.      0.
  42.532   2619.      0.
  42.561   2485.      0.
  42.591   2294.      0.
  42.620   2228.      0.
  42.649   2072.      0.
  42.678   2038.      0.
  42.707   2068.      0.
  42.736   2135.      0.
  42.765   2127.      0.
  42.794   2124.      0.
  42.823   2014.      0.
  42.852   1962.      0.
  42.881   2049.      0.
  42.910   2056.      0.
  42.939   2015.      0.
  42.968   2058.      0.
  42.997   1986.      0.
  43.026   1910.      0.
  43.055   1968.      0.
  43.084   1879.      0.
  43.113   1947.      0.
  43.142   2076.      0.
  43.171   2097.      0.
  43.200   2111.      0.
  43.229   2244.      0.
  43.258   2252.      0.
  43.287   2441.      0.
  43.316   2550.      0.
  43.346   2700.      0.
  43.375   2687.      0.
  43.404   2640.      0.
  43.433   2754.      0.
  43.462   2911.      0.
  43.491   2926.      0.
  43.520   2889.      0.
  43.549   2697.      0.
  43.578   2463.      0.
  43.607   2298.      0.
  43.636   2207.      0.
  43.665   2161.      0.
  43.694   2224.      0.
  43.723   2352.      0.
  43.752   2308.      0.
  43.781   2396.      0.
  43.810   2361.      0.
  43.839   2225.      0.
  43.868   2336.      0.
  43.897   2469.      0.
  43.926   2831.      0.
  43.955   3133.      0.
  43.984   3804.      0.
  44.013   4728.      0.
  44.042   5457.      0.
  44.072   6162.      0.
  44.101   6324.      0.
  44.130   5717.      0.
  44.159   4407.      0.
  44.188   3795.      0.
  44.217   3373.      0.
  44.246   3169.      0.
  44.275   3114.      0.
  44.304   3008.      0.
  44.333   3057.      0.
  44.362   3179.      0.
  44.391   3302.      0.
  44.420   3495.      0.
  44.449   3657.      0.
  44.478   3404.      0.
  44.507   3249.      0.
  44.536   3047.      0.
  44.565   3021.      0.
  44.594   2900.      0.
  44.623   2965.      0.
  44.652   2924.      0.
  44.681   2745.      0.
  44.710   2613.      0.
  44.739   2363.      0.
  44.768   2357.      0.
  44.797   2233.      0.
  44.827   2133.      0.
  44.856   2159.      0.
  44.885   2018.      0.
  44.914   2082.      0.
  44.943   2005.      0.
  44.972   1863.      0.
  45.001   1888.      0.
  45.030   1904.      0.
  45.059   1697.      0.
  45.088   1712.      0.
  45.117   1765.      0.
  45.146   1776.      0.
  45.175   1786.      0.
  45.204   1853.      0.
  45.233   2008.      0.
  45.262   2251.      0.
  45.291   2312.      0.
  45.320   2301.      0.
  45.349   2342.      0.
  45.378   2424.      0.
  45.407   2300.      0.
  45.436   2090.      0.
  45.465   1904.      0.
  45.494   1848.      0.
  45.523   1681.      0.
  45.552   1749.      0.
  45.582   1873.      0.
  45.611   1784.      0.
  45.640   1643.      0.
  45.669   1562.      0.
  45.698   1637.      0.
  45.727   1647.      0.
  45.756   1619.      0.
  45.785   1532.      0.
  45.814   1372.      0.
  45.843   1370.      0.
  45.872   1435.      0.
  45.901   1344.      0.
  45.930   1366.      0.
  45.959   1363.      0.
  45.988   1409.      0.
  46.017   1302.      0.
  46.046   1514.      0.
  46.075   1661.      0.
  46.104   1948.      0.
  46.133   2264.      0.
  46.162   2923.      0.
  46.191   3300.      0.
  46.220   3670.      0.
  46.249   3690.      0.
  46.278   3448.      0.
  46.307   3060.      0.
  46.337   2651.      0.
  46.366   2539.      0.
  46.395   2733.      0.
  46.424   2816.      0.
  46.453   3029.      0.
  46.482   3408.      0.
  46.511   3608.      0.
  46.540   3533.      0.
  46.569   3327.      0.
  46.598   2939.      0.
  46.627   2574.      0.
  46.656   2283.      0.
  46.685   2012.      0.
  46.714   1975.      0.
  46.743   1768.      0.
  46.772   1775.      0.
  46.801   1701.      0.
  46.830   1699.      0.
  46.859   1662.      0.
  46.888   1795.      0.
  46.917   1716.      0.
  46.946   1846.      0.
  46.975   1851.      0.
  47.004   1808.      0.
  47.033   1824.      0.
  47.063   1825.      0.
  47.092   2000.      0.
  47.121   2026.      0.
  47.150   2097.      0.
  47.179   2202.      0.
  47.208   2282.      0.
  47.237   2649.      0.
  47.266   3132.      0.
  47.295   3654.      0.
  47.324   4020.      0.
  47.353   3946.      0.
  47.382   4200.      0.
  47.411   4396.      0.
  47.440   4483.      0.
  47.469   4512.      0.
  47.498   4503.      0.
  47.527   4410.      0.
  47.556   3911.      0.
  47.585   3253.      0.
  47.614   2987.      0.
  47.643   2869.      0.
  47.672   2699.      0.
  47.701   2322.      0.
  47.730   2271.      0.
  47.759   2488.      0.
  47.788   2699.      0.
  47.818   2791.      0.
  47.847   3234.      0.
  47.876   3445.      0.
  47.905   3388.      0.
  47.934   3414.      0.
  47.963   3125.      0.
  47.992   2793.      0.
  48.021   2460.      0.
  48.050   2247.      0.
  48.079   2134.      0.
  48.108   1973.      0.
  48.137   1964.      0.
  48.166   1880.      0.
  48.195   1885.      0.
  48.224   1706.      0.
  48.253   1880.      0.
  48.282   1815.      0.
  48.311   1809.      0.
  48.340   1763.      0.
  48.369   1824.      0.
  48.398   1887.      0.
  48.427   1932.      0.
  48.456   2050.      0.
  48.485   2160.      0.
  48.514   2163.      0.
  48.543   2212.      0.
  48.573   2331.      0.
  48.602   2568.      0.
  48.631   2764.      0.
  48.660   2739.      0.
  48.689   2938.      0.
  48.718   3080.      0.
  48.747   3084.      0.
  48.776   3038.      0.
  48.805   3128.      0.
  48.834   2986.      0.
  48.863   2818.      0.
  48.892   2487.      0.
  48.921   2120.      0.
  48.950   1942.      0.
  48.979   2070.      0.
  49.008   2058.      0.
  49.037   2191.      0.
  49.066   2236.      0.
  49.095   2192.      0.
  49.124   2258.      0.
  49.153   2233.      0.
  49.182   2196.      0.
  49.211   2028.      0.
  49.240   1840.      0.
  49.269   1782.      0.
  49.299   1534.      0.
  49.328   1437.      0.
  49.357   1310.      0.
  49.386   1381.      0.
  49.415   1384.      0.
  49.444   1352.      0.
  49.473   1306.      0.
  49.502   1256.      0.
  49.531   1235.      0.
  49.560   1213.      0.
  49.589   1376.      0.
  49.618   1376.      0.
  49.647   1480.      0.
  49.676   1465.      0.
  49.705   1358.      0.
  49.734   1395.      0.
  49.763   1459.      0.
  49.792   1528.      0.
  49.821   1713.      0.
  49.850   1872.      0.
  49.879   2065.      0.
  49.908   2121.      0.
  49.937   2044.      0.
  49.966   1824.      0.
  49.995   1782.      0.
  50.024   1616.      0.
  50.054   1641.      0.
  50.083   1633.      0.
  50.112   1709.      0.
  50.141   1763.      0.
  50.170   1717.      0.
  50.199   1782.      0.
  50.228   1817.      0.
  50.257   1805.      0.
  50.286   1763.      0.
  50.315   1796.      0.
  50.344   1852.      0.
  50.373   1941.      0.
  50.402   1906.      0.
  50.431   1881.      0.
  50.460   1913.      0.
  50.489   1997.      0.
  50.518   1824.      0.
  50.547   1700.      0.
  50.576   1681.      0.
  50.605   1701.      0.
  50.634   1710.      0.
  50.663   1681.      0.
  50.692   1923.      0.
  50.721   1946.      0.
  50.750   2038.      0.
  50.779   2103.      0.
  50.809   2266.      0.
  50.838   2506.      0.
  50.867   2637.      0.
  50.896   2893.      0.
  50.925   3170.      0.
  50.954   3325.      0.
  50.983   3267.      0.
  51.012   3089.      0.
  51.041   2944.      0.
  51.070   2773.      0.
  51.099   2615.      0.
  51.128   2707.      0.
  51.157   2798.      0.
  51.186   2630.      0.
  51.215   2503.      0.
  51.244   2348.      0.
  51.273   2145.      0.
  51.302   2128.      0.
  51.331   1929.      0.
  51.360   1944.      0.
  51.389   1894.      0.
  51.418   1906.      0.
  51.447   1913.      0.
  51.476   1893.      0.
  51.505   1860.      0.
  51.535   1778.      0.
  51.564   1833.      0.
  51.593   1909.      0.
  51.622   1767.      0.
  51.651   1667.      0.
  51.680   1737.      0.
  51.709   1724.      0.
  51.738   1743.      0.
  51.767   1570.      0.
  51.796   1597.      0.
  51.825   1694.      0.
  51.854   1851.      0.
  51.883   1805.      0.
  51.912   1818.      0.
  51.941   1930.      0.
  51.970   2074.      0.
  51.999   2139.      0.
  52.028   2166.      0.
  52.057   2183.      0.
  52.086   2179.      0.
  52.115   2153.      0.
  52.144   2132.      0.
  52.173   1931.      0.
  52.202   1831.      0.
  52.231   1813.      0.
  52.260   1811.      0.
  52.290   1729.      0.
  52.319   1671.      0.
  52.348   1752.      0.
  52.377   1893.      0.
  52.406   2085.      0.
  52.435   1956.      0.
  52.464   1950.      0.
  52.493   1924.      0.
  52.522   1904.      0.
  52.551   1900.      0.
  52.580   1978.      0.
  52.609   2058.      0.
  52.638   2070.      0.
  52.667   1992.      0.
  52.696   1789.      0.
  52.725   1782.      0.
  52.754   1698.      0.
  52.783   1558.      0.
  52.812   1556.      0.
  52.841   1607.      0.
  52.870   1599.      0.
  52.899   1576.      0.
  52.928   1608.      0.
  52.957   1613.      0.
  52.986   1662.      0.
  53.015   1575.      0.
  53.045   1621.      0.
  53.074   1656.      0.
  53.103   1473.      0.
  53.132   1552.      0.
  53.161   1521.      0.
  53.190   1513.      0.
  53.219   1600.      0.
  53.248   1636.      0.
  53.277   1793.      0.
  53.306   1744.      0.
  53.335   1902.      0.
  53.364   2030.      0.
  53.393   2082.      0.
  53.422   2115.      0.
  53.451   1773.      0.
  53.480   1688.      0.
  53.509   1615.      0.
  53.538   1572.      0.
  53.567   1710.      0.
  53.596   1558.      0.
  53.625   1583.      0.
  53.654   1613.      0.
  53.683   1588.      0.
  53.712   1667.      0.
  53.741   1530.      0.
  53.770   1764.      0.
  53.800   1765.      0.
  53.829   1894.      0.
  53.858   2146.      0.
  53.887   2339.      0.
  53.916   2478.      0.
  53.945   2359.      0.
  53.974   2069.      0.
  54.003   1964.      0.
  54.032   1777.      0.
  54.061   1621.      0.
  54.090   1521.      0.
  54.119   1467.      0.
  54.148   1406.      0.
  54.177   1413.      0.
  54.206   1363.      0.
  54.235   1473.      0.
  54.264   1584.      0.
  54.293   1584.      0.
  54.322   1669.      0.
  54.351   1732.      0.
  54.380   1761.      0.
  54.409   1920.      0.
  54.438   2206.      0.
  54.467   2298.      0.
  54.496   2185.      0.
  54.526   2059.      0.
  54.555   1968.      0.
  54.584   1922.      0.
  54.613   1739.      0.
  54.642   1574.      0.
  54.671   1595.      0.
  54.700   1464.      0.
  54.729   1508.      0.
  54.758   1572.      0.
  54.787   1702.      0.
  54.816   1824.      0.
  54.845   1817.      0.
  54.874   1885.      0.
  54.903   1774.      0.
  54.932   1879.      0.
  54.961   1916.      0.
  54.990   1924.      0.
  55.019   1976.      0.
  55.048   1924.      0.
  55.077   1874.      0.
  55.106   1857.      0.
  55.135   1979.      0.
  55.164   2112.      0.
  55.193   2167.      0.
  55.222   2178.      0.
  55.251   2139.      0.
  55.281   1899.      0.
  55.310   1715.      0.
  55.339   1690.      0.
  55.368   1610.      0.
  55.397   1517.      0.
  55.426   1540.      0.
  55.455   1541.      0.
  55.484   1470.      0.
  55.513   1512.      0.
  55.542   1503.      0.
  55.571   1524.      0.
  55.600   1550.      0.
  55.629   1608.      0.
  55.658   1637.      0.
  55.687   1581.      0.
  55.716   1517.      0.
  55.745   1710.      0.
  55.774   1792.      0.
  55.803   1760.      0.
  55.832   1638.      0.
  55.861   1479.      0.
  55.890   1447.      0.
  55.919   1382.      0.
  55.948   1415.      0.
  55.977   1235.      0.
  56.006   1255.      0.
  56.036   1233.      0.
  56.065   1309.      0.
  56.094   1303.      0.
  56.123   1415.      0.
  56.152   1545.      0.
  56.181   1619.      0.
  56.210   1691.      0.
  56.239   1981.      0.
  56.268   2089.      0.
  56.297   2244.      0.
  56.326   2336.      0.
  56.355   2295.      0.
  56.384   2446.      0.
  56.413   2276.      0.
  56.442   2130.      0.
  56.471   2120.      0.
  56.500   2044.      0.
  56.529   1824.      0.
  56.558   1757.      0.
  56.587   1830.      0.
  56.616   1910.      0.
  56.645   1890.      0.
  56.674   2021.      0.
  56.703   2054.      0.
  56.732   2002.      0.
  56.762   2011.      0.
  56.791   1838.      0.
  56.820   1859.      0.
  56.849   1889.      0.
  56.878   1961.      0.
  56.907   1995.      0.
  56.936   1974.      0.
  56.965   1937.      0.
  56.994   1723.      0.
  57.023   1758.      0.
  57.052   1753.      0.
  57.081   1746.      0.
  57.110   1771.      0.
  57.139   1795.      0.
  57.168   1705.      0.
  57.197   1714.      0.
  57.226   1685.      0.
  57.255   1611.      0.
  57.284   1669.      0.
  57.313   1683.      0.
  57.342   1781.      0.
  57.371   1716.      0.
  57.400   1858.      0.
  57.429   2024.      0.
  57.458   2002.      0.
  57.487   2057.      0.
  57.517   2084.      0.
  57.546   2185.      0.
  57.575   2249.      0.
  57.604   2187.      0.
  57.633   2416.      0.
  57.662   2526.      0.
  57.691   2728.      0.
  57.720   2759.      0.
  57.749   2927.      0.
  57.778   2912.      0.
  57.807   2723.      0.
  57.836   2432.      0.
  57.865   2110.      0.
  57.894   1924.      0.
  57.923   1747.      0.
  57.952   1612.      0.
  57.981   1585.      0.
  58.010   1643.      0.
  58.039   1642.      0.
  58.068   1718.      0.
  58.097   1861.      0.
  58.126   1990.      0.
  58.155   2115.      0.
  58.184   2097.      0.
  58.213   2136.      0.
  58.242   2162.      0.
  58.272   2151.      0.
  58.301   2175.      0.
  58.330   2226.      0.
  58.359   2117.      0.
  58.388   2016.      0.
  58.417   1902.      0.
  58.446   1791.      0.
  58.475   1750.      0.
  58.504   1738.      0.
  58.533   1645.      0.
  58.562   1519.      0.
  58.591   1601.      0.
  58.620   1655.      0.
  58.649   1680.      0.
  58.678   1654.      0.
  58.707   1696.      0.
  58.736   1731.      0.
  58.765   1691.      0.
  58.794   1702.      0.
  58.823   1680.      0.
  58.852   1811.      0.
  58.881   1786.      0.
  58.910   1779.      0.
  58.939   1897.      0.
  58.968   1880.      0.
  58.997   1804.      0.
  59.027   1576.      0.
  59.056   1425.      0.
  59.085   1331.      0.
  59.114   1325.      0.
  59.143   1522.      0.
  59.172   1500.      0.
  59.201   1594.      0.
  59.230   1675.      0.
  59.259   1679.      0.
  59.288   1529.      0.
  59.317   1516.      0.
  59.346   1540.      0.
  59.375   1551.      0.
  59.404   1510.      0.
  59.433   1430.      0.
  59.462   1389.      0.
  59.491   1374.      0.
  59.520   1235.      0.
  59.549   1083.      0.
  59.578   1051.      0.
  59.607   1062.      0.
  59.636    998.      0.
  59.665    984.      0.
  59.694    915.      0.
  59.723    944.      0.
  59.753    893.      0.
  59.782    941.      0.
  59.811    998.      0.
  59.840    927.      0.
  59.869    928.      0.
  59.898    895.      0.
  59.927    887.      0.
  59.956    838.      0.
  59.985    766.      0.
  60.014    765.      0.
  60.043    835.      0.
  60.072    800.      0.
  60.101    845.      0.
  60.130    789.      0.
  60.159    853.      0.
  60.188    868.      0.
  60.217    768.      0.
  60.246    757.      0.
  60.275    639.      0.
  60.304    626.      0.
  60.333    704.      0.
  60.362    650.      0.
  60.391    650.      0.
  60.420    590.      0.
  60.449    570.      0.
  60.478    536.      0.
  60.508    557.      0.
  60.537    571.      0.
  60.566    583.      0.
  60.595    531.      0.
  60.624    550.      0.
  60.653    539.      0.
  60.682    582.      0.
  60.711    603.      0.
  60.740    613.      0.
  60.769    646.      0.
  60.798    625.      0.
  60.827    629.      0.
  60.856    638.      0.
  60.885    657.      0.
  60.914    671.      0.
  60.943    632.      0.
  60.972    687.      0.
  61.001    683.      0.
  61.030    725.      0.
  61.059    708.      0.
  61.088    717.      0.
  61.117    674.      0.
  61.146    711.      0.
  61.175    670.      0.
  61.204    708.      0.
  61.233    699.      0.
  61.263    711.      0.
  61.292    695.      0.
  61.321    626.      0.
  61.350    596.      0.
  61.379    617.      0.
  61.408    597.      0.
  61.437    563.      0.
  61.466    577.      0.
  61.495    576.      0.
  61.524    618.      0.
  61.553    612.      0.
  61.582    605.      0.
  61.611    599.      0.
  61.640    620.      0.
  61.669    631.      0.
  61.698    699.      0.
  61.727    665.      0.
  61.756    685.      0.
  61.785    662.      0.
  61.814    696.      0.
  61.843    714.      0.
  61.872    708.      0.
  61.901    763.      0.
  61.930    821.      0.
  61.959    741.      0.
  61.989    764.      0.
  62.018    780.      0.
  62.047    817.      0.
  62.076    825.      0.
  62.105    738.      0.
  62.134    681.      0.
  62.163    639.      0.
  62.192    565.      0.
  62.221    576.      0.
  62.250    701.      0.
  62.279    800.      0.
  62.308    852.      0.
  62.337    877.      0.
  62.366    823.      0.
  62.395    767.      0.
  62.424    765.      0.
  62.453    786.      0.
  62.482    881.      0.
  62.511    822.      0.
  62.540    817.      0.
  62.569    798.      0.
  62.598    746.      0.
  62.627    802.      0.
  62.656    720.      0.
  62.685    698.      0.
  62.714    628.      0.
  62.744    575.      0.
  62.773    498.      0.
  62.802    554.      0.
  62.831    616.      0.
  62.860    582.      0.
  62.889    633.      0.
  62.918    572.      0.
  62.947    545.      0.
  62.976    591.      0.
  63.005    657.      0.
  63.034    651.      0.
  63.063    736.      0.
  63.092    700.      0.
  63.121    721.      0.
  63.150    713.      0.
  63.179    698.      0.
  63.208    685.      0.
  63.237    584.      0.
  63.266    539.      0.
  63.295    498.      0.
  63.324    559.      0.
  63.353    516.      0.
  63.382    437.      0.
  63.411    480.      0.
  63.440    493.      0.
  63.469    491.      0.
  63.499    491.      0.
  63.528    535.      0.
  63.557    554.      0.
  63.586    546.      0.
  63.615    522.      0.
  63.644    563.      0.
  63.673    582.      0.
  63.702    596.      0.
  63.731    637.      0.
  63.760    680.      0.
  63.789    636.      0.
  63.818    556.      0.
  63.847    530.      0.
  63.876    567.      0.
  63.905    657.      0.
  63.934    566.      0.
  63.963    572.      0.
  63.992    566.      0.
  64.021    541.      0.
  64.050    549.      0.
  64.079    594.      0.
  64.108    568.      0.
  64.137    548.      0.
  64.166    491.      0.
  64.195    480.      0.
  64.225    454.      0.
  64.254    456.      0.
  64.283    506.      0.
  64.312    534.      0.
  64.341    597.      0.
  64.370    585.      0.
  64.399    584.      0.
  64.428    512.      0.
  64.457    469.      0.
  64.486    431.      0.
  64.515    493.      0.
  64.544    523.      0.
  64.573    586.      0.
  64.602    559.      0.
  64.631    602.      0.
  64.660    594.      0.
  64.689    619.      0.
  64.718    609.      0.
  64.747    652.      0.
  64.776    670.      0.
  64.805    747.      0.
  64.834    709.      0.
  64.863    707.      0.
  64.892    688.      0.
  64.921    679.      0.
  64.950    708.      0.
  64.980    641.      0.
  65.009    623.      0.
  65.038    604.      0.
  65.067    570.      0.
  65.096    522.      0.
  65.125    556.      0.
  65.154    573.      0.
  65.183    569.      0.
  65.212    595.      0.
  65.241    474.      0.
  65.270    471.      0.
  65.299    428.      0.
  65.328    441.      0.
  65.357    435.      0.
  65.386    441.      0.
  65.415    457.      0.
  65.444    451.      0.
  65.473    486.      0.
  65.502    492.      0.
  65.531    466.      0.
  65.560    455.      0.
  65.589    508.      0.
  65.618    598.      0.
  65.647    612.      0.
  65.676    579.      0.
  65.705    554.      0.
  65.735    600.      0.
  65.764    591.      0.
  65.793    633.      0.
  65.822    632.      0.
  65.851    653.      0.
  65.880    636.      0.
  65.909    652.      0.
  65.938    609.      0.
  65.967    650.      0.
  65.996    653.      0.
  66.025    670.      0.
  66.054    679.      0.
  66.083    642.      0.
  66.112    673.      0.
  66.141    685.      0.
  66.170    653.      0.
  66.199    677.      0.
  66.228    737.      0.
  66.257    816.      0.
  66.286    794.      0.
  66.315    792.      0.
  66.344    721.      0.
  66.373    678.      0.
  66.402    688.      0.
  66.431    660.      0.
  66.460    648.      0.
  66.490    654.      0.
  66.519    585.      0.
  66.548    579.      0.
  66.577    537.      0.
  66.606    581.      0.
  66.635    591.      0.
  66.664    649.      0.
  66.693    613.      0.
  66.722    641.      0.
  66.751    645.      0.
  66.780    655.      0.
  66.809    749.      0.
  66.838    879.      0.
  66.867    906.      0.
  66.896    972.      0.
  66.925    976.      0.
  66.954    941.      0.
  66.983    991.      0.
  67.012    998.      0.
  67.041   1064.      0.
  67.070   1071.      0.
  67.099   1037.      0.
  67.128    965.      0.
  67.157    972.      0.
  67.186   1057.      0.
  67.216   1053.      0.
  67.245   1074.      0.
  67.274    948.      0.
  67.303    852.      0.
  67.332    852.      0.
  67.361    799.      0.
  67.390    772.      0.
  67.419    814.      0.
  67.448    832.      0.
  67.477    848.      0.
  67.506    768.      0.
  67.535    810.      0.
  67.564    808.      0.
  67.593    779.      0.
  67.622    715.      0.
  67.651    678.      0.
  67.680    644.      0.
  67.709    629.      0.
  67.738    614.      0.
  67.767    643.      0.
  67.796    657.      0.
  67.825    714.      0.
  67.854    732.      0.
  67.883    759.      0.
  67.912    816.      0.
  67.941    793.      0.
  67.971    695.      0.
  68.000    627.      0.
  68.029    630.      0.
  68.058    630.      0.
  68.087    665.      0.
  68.116    647.      0.
  68.145    708.      0.
  68.174    622.      0.
  68.203    607.      0.
  68.232    611.      0.
  68.261    657.      0.
  68.290    584.      0.
  68.319    588.      0.
  68.348    575.      0.
  68.377    578.      0.
  68.406    680.      0.
  68.435    656.      0.
  68.464    638.      0.
  68.493    713.      0.
  68.522    622.      0.
  68.551    562.      0.
  68.580    606.      0.
  68.609    652.      0.
  68.638    678.      0.
  68.667    750.      0.
  68.696    802.      0.
  68.726    848.      0.
  68.755    911.      0.
  68.784    956.      0.
  68.813    969.      0.
  68.842    952.      0.
  68.871    846.      0.
  68.900    889.      0.
  68.929    900.      0.
  68.958    794.      0.
  68.987    783.      0.
  69.016    814.      0.
  69.045    833.      0.
  69.074    798.      0.
  69.103    880.      0.
  69.132    874.      0.
  69.161    792.      0.
  69.190    713.      0.
  69.219    691.      0.
  69.248    661.      0.
  69.277    663.      0.
  69.306    711.      0.
  69.335    771.      0.
  69.364    756.      0.
  69.393    735.      0.
  69.422    821.      0.
  69.452    765.      0.
  69.481    842.      0.
  69.510    879.      0.
  69.539    842.      0.
  69.568    917.      0.
  69.597    959.      0.
  69.626   1015.      0.
  69.655   1040.      0.
  69.684   1116.      0.
  69.713   1098.      0.
  69.742   1069.      0.
  69.771   1096.      0.
  69.800   1036.      0.
  69.829   1089.      0.
  69.858   1096.      0.
  69.887   1207.      0.
  69.916   1204.      0.
  69.945   1301.      0.
  69.974   1418.      0.
  70.003   1575.      0.
  70.032   1613.      0.
  70.061   1640.      0.
  70.090   1619.      0.
  70.119   1803.      0.
  70.148   1760.      0.
  70.177   1769.      0.
  70.207   1912.      0.
  70.236   2077.      0.
  70.265   2142.      0.
  70.294   1980.      0.
  70.323   2015.      0.
  70.352   2071.      0.
  70.381   1946.      0.
  70.410   2028.      0.
  70.439   1950.      0.
  70.468   2014.      0.
  70.497   2058.      0.
  70.526   2095.      0.
  70.555   2005.      0.
  70.584   2145.      0.
  70.613   2028.      0.
  70.642   2109.      0.
  70.671   2151.      0.
  70.700   2146.      0.
  70.729   1945.      0.
  70.758   1828.      0.
  70.787   1632.      0.
  70.816   1526.      0.
  70.845   1576.      0.
  70.874   1484.      0.
  70.903   1590.      0.
  70.932   1610.      0.
  70.962   1622.      0.
  70.991   1658.      0.
  71.020   1622.      0.
  71.049   1731.      0.
  71.078   1668.      0.
  71.107   1601.      0.
  71.136   1700.      0.
  71.165   1651.      0.
  71.194   1560.      0.
  71.223   1441.      0.
  71.252   1439.      0.
  71.281   1400.      0.
  71.310   1369.      0.
  71.339   1343.      0.
  71.368   1367.      0.
  71.397   1456.      0.
  71.426   1392.      0.
  71.455   1348.      0.
  71.484   1229.      0.
  71.513   1217.      0.
  71.542   1336.      0.
  71.571   1272.      0.
  71.600   1381.      0.
  71.629   1331.      0.
  71.658   1316.      0.
  71.687   1266.      0.
  71.717   1144.      0.
  71.746   1241.      0.
  71.775   1386.      0.
  71.804   1479.      0.
  71.833   1390.      0.
  71.862   1354.      0.
  71.891   1404.      0.
  71.920   1373.      0.
  71.949   1292.      0.
  71.978   1230.      0.
  72.007   1236.      0.
  72.036   1270.      0.
  72.065   1358.      0.
  72.094   1289.      0.
  72.123   1249.      0.
  72.152   1314.      0.
  72.181   1273.      0.
  72.210   1311.      0.
  72.239   1318.      0.
  72.268   1329.      0.
  72.297   1348.      0.
  72.326   1307.      0.
  72.355   1326.      0.
  72.384   1373.      0.
  72.413   1357.      0.
  72.443   1325.      0.
  72.472   1349.      0.
  72.501   1403.      0.
  72.530   1378.      0.
  72.559   1366.      0.
  72.588   1314.      0.
  72.617   1358.      0.
  72.646   1353.      0.
  72.675   1455.      0.
  72.704   1487.      0.
  72.733   1534.      0.
  72.762   1575.      0.
  72.791   1685.      0.
  72.820   1671.      0.
  72.849   1736.      0.
  72.878   1613.      0.
  72.907   1673.      0.
  72.936   1709.      0.
  72.965   1710.      0.
  72.994   1699.      0.
  73.023   1697.      0.
  73.052   1808.      0.
  73.081   1718.      0.
  73.110   1846.      0.
  73.139   1894.      0.
  73.168   1904.      0.
  73.198   1871.      0.
  73.227   1796.      0.
  73.256   1834.      0.
  73.285   1868.      0.
  73.314   1730.      0.
  73.343   1747.      0.
  73.372   1636.      0.
  73.401   1614.      0.
  73.430   1606.      0.
  73.459   1503.      0.
  73.488   1541.      0.
  73.517   1506.      0.
  73.546   1494.      0.
  73.575   1440.      0.
  73.604   1442.      0.
  73.633   1399.      0.
  73.662   1355.      0.
  73.691   1398.      0.
  73.720   1453.      0.
  73.749   1489.      0.
  73.778   1549.      0.
  73.807   1573.      0.
  73.836   1572.      0.
  73.865   1590.      0.
  73.894   1607.      0.
  73.923   1705.      0.
  73.953   1754.      0.
  73.982   1871.      0.
  74.011   1826.      0.
  74.040   1921.      0.
  74.069   1927.      0.
  74.098   1994.      0.
  74.127   2048.      0.
  74.156   1992.      0.
  74.185   2114.      0.
  74.214   2303.      0.
  74.243   2313.      0.
  74.272   2284.      0.
  74.301   2406.      0.
  74.330   2358.      0.
  74.359   2102.      0.
  74.388   1954.      0.
  74.417   1819.      0.
  74.446   1705.      0.
  74.475   1599.      0.
  74.504   1659.      0.
  74.533   1668.      0.
  74.562   1578.      0.
  74.591   1593.      0.
  74.620   1525.      0.
  74.649   1558.      0.
  74.679   1599.      0.
  74.708   1554.      0.
  74.737   1554.      0.
  74.766   1641.      0.
  74.795   1581.      0.
  74.824   1650.      0.
  74.853   1522.      0.
  74.882   1545.      0.
  74.911   1670.      0.
  74.940   1673.      0.
  74.969   1639.      0.
  74.998   1700.      0.
  75.027   1751.      0.
  75.056   1740.      0.
  75.085   1664.      0.
  75.114   1519.      0.
  75.143   1241.      0.
  75.172   1369.      0.
  75.201   1568.      0.
  75.230   1622.      0.
  75.259   1553.      0.
  75.288   1434.      0.
  75.317   1491.      0.
  75.346   1545.      0.
  75.375   1669.      0.
  75.404   1628.      0.
  75.434   1506.      0.
  75.463   1645.      0.
  75.492   1619.      0.
  75.521   1687.      0.
  75.550   1685.      0.
  75.579   1733.      0.
  75.608   1776.      0.
  75.637   1889.      0.
  75.666   1795.      0.
  75.695   1815.      0.
  75.724   1816.      0.
  75.753   1808.      0.
  75.782   1855.      0.
  75.811   1943.      0.
  75.840   1969.      0.
  75.869   2002.      0.
  75.898   1949.      0.
  75.927   1941.      0.
  75.956   1897.      0.
  75.985   1846.      0.
  76.014   1801.      0.
  76.043   1734.      0.
  76.072   1814.      0.
  76.101   1866.      0.
  76.130   1908.      0.
  76.159   1864.      0.
  76.189   1888.      0.
  76.218   1880.      0.
  76.247   1917.      0.
  76.276   1864.      0.
  76.305   1855.      0.
  76.334   1719.      0.
  76.363   1699.      0.
  76.392   1703.      0.
  76.421   1613.      0.
  76.450   1648.      0.
  76.479   1522.      0.
  76.508   1567.      0.
  76.537   1547.      0.
  76.566   1634.      0.
  76.595   1693.      0.
  76.624   1747.      0.
  76.653   1766.      0.
  76.682   1873.      0.
  76.711   1722.      0.
  76.740   1834.      0.
  76.769   1791.      0.
  76.798   1793.      0.
  76.827   1767.      0.
  76.856   1746.      0.
  76.885   1915.      0.
  76.915   1969.      0.
  76.944   1996.      0.
  76.973   2100.      0.
  77.002   2107.      0.
  77.031   2206.      0.
  77.060   2230.      0.
  77.089   2240.      0.
  77.118   2254.      0.
  77.147   2228.      0.
  77.176   2135.      0.
  77.205   2033.      0.
  77.234   1890.      0.
  77.263   1819.      0.
  77.292   1832.      0.
  77.321   1802.      0.
  77.350   1821.      0.
  77.379   1754.      0.
  77.408   1825.      0.
  77.437   1820.      0.
  77.466   1729.      0.
  77.495   1725.      0.
  77.524   1817.      0.
  77.553   1704.      0.
  77.582   1729.      0.
  77.611   1691.      0.
  77.640   1596.      0.
  77.670   1638.      0.
  77.699   1649.      0.
  77.728   1549.      0.
  77.757   1628.      0.
  77.786   1704.      0.
  77.815   1862.      0.
  77.844   1975.      0.
  77.873   1906.      0.
  77.902   1941.      0.
  77.931   1957.      0.
  77.960   1936.      0.
  77.989   2160.      0.
  78.018   2144.      0.
  78.047   2180.      0.
  78.076   2223.      0.
  78.105   2290.      0.
  78.134   2172.      0.
  78.163   2131.      0.
  78.192   2108.      0.
  78.221   1879.      0.
  78.250   1908.      0.
  78.279   1830.      0.
  78.308   1849.      0.
  78.337   1804.      0.
  78.366   1718.      0.
  78.395   1806.      0.
  78.425   1849.      0.
  78.454   1835.      0.
  78.483   1944.      0.
  78.512   1997.      0.
  78.541   2054.      0.
  78.570   2032.      0.
  78.599   2034.      0.
  78.628   1913.      0.
  78.657   1972.      0.
  78.686   1948.      0.
  78.715   1980.      0.
  78.744   2016.      0.
  78.773   1860.      0.
  78.802   1703.      0.
  78.831   1618.      0.
  78.860   1588.      0.
  78.889   1570.      0.
  78.918   1580.      0.
  78.947   1507.      0.
  78.976   1578.      0.
  79.005   1461.      0.
  79.034   1599.      0.
  79.063   1535.      0.
  79.092   1665.      0.
  79.121   1639.      0.
  79.150   1604.      0.
  79.180   1604.      0.
  79.209   1606.      0.
  79.238   1652.      0.
  79.267   1663.      0.
  79.296   1627.      0.
  79.325   1645.      0.
  79.354   1599.      0.
  79.383   1676.      0.
  79.412   1644.      0.
  79.441   1582.      0.
  79.470   1591.      0.
  79.499   1621.      0.
  79.528   1577.      0.
  79.557   1682.      0.
  79.586   1678.      0.
  79.615   1683.      0.
  79.644   1676.      0.
  79.673   1710.      0.
  79.702   1777.      0.
  79.731   1752.      0.
  79.760   1784.      0.
  79.789   1776.      0.
  79.818   1774.      0.
  79.847   1854.      0.
  79.876   1758.      0.
  79.906   1652.      0.
  79.935   1644.      0.
  79.964   1688.      0.
  79.993   1666.      0.
  80.022   1676.      0.
  80.051   1641.      0.
  80.080   1572.      0.
  80.109   1747.      0.
  80.138   1746.      0.
  80.167   1730.      0.
  80.196   1729.      0.
  80.225   1675.      0.
  80.254   1544.      0.
  80.283   1601.      0.
  80.312   1602.      0.
  80.341   1530.      0.
  80.370   1678.      0.
  80.399   1752.      0.
  80.428   1753.      0.
  80.457   1723.      0.
  80.486   1661.      0.
  80.515   1590.      0.
  80.544   1576.      0.
  80.573   1626.      0.
  80.602   1684.      0.
  80.631   1558.      0.
  80.661   1511.      0.
  80.690   1459.      0.
  80.719   1385.      0.
  80.748   1348.      0.
  80.777   1380.      0.
  80.806   1374.      0.
  80.835   1457.      0.
  80.864   1390.      0.
  80.893   1521.      0.
  80.922   1492.      0.
  80.951   1505.      0.
  80.980   1505.      0.
  81.009   1595.      0.
  81.038   1587.      0.
  81.067   1573.      0.
  81.096   1510.      0.
  81.125   1550.      0.
  81.154   1507.      0.
  81.183   1571.      0.
  81.212   1511.      0.
  81.241   1523.      0.
  81.270   1412.      0.
  81.299   1331.      0.
  81.328   1333.      0.
  81.357   1356.      0.
  81.386   1407.      0.
  81.416   1324.      0.
  81.445   1298.      0.
  81.474   1294.      0.
  81.503   1309.      0.
  81.532   1349.      0.
  81.561   1346.      0.
  81.590   1344.      0.
  81.619   1216.      0.
  81.648   1175.      0.
  81.677   1155.      0.
  81.706   1145.      0.
  81.735   1115.      0.
  81.764   1073.      0.
  81.793   1009.      0.
  81.822    967.      0.
  81.851    973.      0.
  81.880    952.      0.
  81.909   1073.      0.
  81.938   1057.      0.
  81.967   1079.      0.
  81.996   1049.      0.
  82.025   1056.      0.
  82.054    994.      0.
  82.083   1043.      0.
  82.112   1065.      0.
  82.142   1128.      0.
  82.171   1142.      0.
  82.200   1082.      0.
  82.229   1141.      0.
  82.258   1153.      0.
  82.287   1142.      0.
  82.316   1074.      0.
  82.345   1184.      0.
  82.374   1181.      0.
  82.403   1268.      0.
  82.432   1287.      0.
  82.461   1227.      0.
  82.490   1274.      0.
  82.519   1421.      0.
  82.548   1416.      0.
  82.577   1307.      0.
  82.606   1424.      0.
  82.635   1402.      0.
  82.664   1417.      0.
  82.693   1388.      0.
  82.722   1520.      0.
  82.751   1470.      0.
  82.780   1533.      0.
  82.809   1503.      0.
  82.838   1584.      0.
  82.867   1630.      0.
  82.897   1612.      0.
  82.926   1627.      0.
  82.955   1648.      0.
  82.984   1573.      0.
  83.013   1535.      0.
  83.042   1553.      0.
  83.071   1353.      0.
  83.100   1480.      0.
  83.129   1337.      0.
  83.158   1345.      0.
  83.187   1266.      0.
  83.216   1281.      0.
  83.245   1281.      0.
  83.274   1358.      0.
  83.303   1292.      0.
  83.332   1382.      0.
  83.361   1414.      0.
  83.390   1381.      0.
  83.419   1388.      0.
  83.448   1475.      0.
  83.477   1480.      0.
  83.506   1471.      0.
  83.535   1524.      0.
  83.564   1428.      0.
  83.593   1379.      0.
  83.622   1448.      0.
  83.652   1455.      0.
  83.681   1459.      0.
  83.710   1408.      0.
  83.739   1414.      0.
  83.768   1361.      0.
  83.797   1270.      0.
  83.826   1377.      0.
  83.855   1391.      0.
  83.884   1394.      0.
  83.913   1379.      0.
  83.942   1334.      0.
  83.971   1357.      0.
  84.000   1217.      0.
  84.029   1066.      0.
  84.058   1043.      0.
  84.087   1016.      0.
  84.116   1140.      0.
  84.145   1340.      0.
  84.174   1322.      0.
  84.203   1326.      0.
  84.232   1197.      0.
  84.261   1311.      0.
  84.290   1417.      0.
  84.319   1436.      0.
  84.348   1359.      0.
  84.377   1334.      0.
  84.407   1247.      0.
  84.436   1245.      0.
  84.465   1234.      0.
  84.494   1180.      0.
  84.523   1111.      0.
  84.552   1066.      0.
  84.581   1037.      0.
  84.610    984.      0.
  84.639    887.      0.
  84.668    894.      0.
  84.697    865.      0.
  84.726    842.      0.
  84.755    811.      0.
  84.784    756.      0.
  84.813    682.      0.
  84.842    678.      0.
  84.871    771.      0.
  84.900    782.      0.
  84.929    778.      0.
  84.958    788.      0.
  84.987    752.      0.
  85.016    704.      0.
  85.045    683.      0.
  85.074    738.      0.
  85.103    711.      0.
  85.133    721.      0.
  85.162    687.      0.
  85.191    667.      0.
  85.220    608.      0.
  85.249    598.      0.
  85.278    505.      0.
  85.307    555.      0.
  85.336    567.      0.
  85.365    516.      0.
  85.394    472.      0.
  85.423    504.      0.
  85.452    466.      0.
  85.481    470.      0.
  85.510    480.      0.
  85.539    482.      0.
  85.568    458.      0.
  85.597    455.      0.
  85.626    527.      0.
  85.655    483.      0.
  85.684    549.      0.
  85.713    459.      0.
  85.742    499.      0.
  85.771    468.      0.
  85.800    501.      0.
  85.829    466.      0.
  85.858    466.      0.
  85.888    442.      0.
  85.917    460.      0.
  85.946    451.      0.
  85.975    437.      0.
  86.004    478.      0.
  86.033    486.      0.
  86.062    451.      0.
  86.091    492.      0.
  86.120    567.      0.
  86.149    563.      0.
  86.178    572.      0.
  86.207    639.      0.
  86.236    623.      0.
  86.265    663.      0.
  86.294    655.      0.
  86.323    675.      0.
  86.352    717.      0.
  86.381    689.      0.
  86.410    711.      0.
  86.439    733.      0.
  86.468    740.      0.
  86.497    839.      0.
  86.526    802.      0.
  86.555    762.      0.
  86.584    755.      0.
  86.613    747.      0.
  86.643    745.      0.
  86.672    786.      0.
  86.701    795.      0.
  86.730    830.      0.
  86.759    969.      0.
  86.788   1048.      0.
  86.817   1025.      0.
  86.846   1092.      0.
  86.875   1210.      0.
  86.904   1158.      0.
  86.933   1180.      0.
  86.962   1081.      0.
  86.991   1019.      0.
  87.020   1006.      0.
  87.049    936.      0.
  87.078   1111.      0.
  87.107   1077.      0.
  87.136   1170.      0.
  87.165   1169.      0.
  87.194   1272.      0.
  87.223   1275.      0.
  87.252   1221.      0.
  87.281   1252.      0.
  87.310   1120.      0.
  87.339   1101.      0.
  87.369   1162.      0.
  87.398   1084.      0.
  87.427   1110.      0.
  87.456   1204.      0.
  87.485   1234.      0.
  87.514   1343.      0.
  87.543   1270.      0.
  87.572   1323.      0.
  87.601   1326.      0.
  87.630   1266.      0.
  87.659   1282.      0.
  87.688   1281.      0.
  87.717   1178.      0.
  87.746   1176.      0.
  87.775   1195.      0.
  87.804   1230.      0.
  87.833   1147.      0.
  87.862   1146.      0.
  87.891   1188.      0.
  87.920   1173.      0.
  87.949   1166.      0.
  87.978   1132.      0.
  88.007   1203.      0.
  88.036   1092.      0.
  88.065   1069.      0.
  88.094   1046.      0.
  88.124    985.      0.
  88.153   1015.      0.
  88.182    990.      0.
  88.211    952.      0.
  88.240    949.      0.
  88.269    883.      0.
  88.298    860.      0.
  88.327    790.      0.
  88.356    839.      0.
  88.385    858.      0.
  88.414    869.      0.
  88.443    852.      0.
  88.472    849.      0.
  88.501    870.      0.
  88.530    848.      0.
  88.559    813.      0.
  88.588    787.      0.
  88.617    737.      0.
  88.646    816.      0.
  88.675    834.      0.
  88.704    909.      0.
  88.733    867.      0.
  88.762    859.      0.
  88.791    844.      0.
  88.820    862.      0.
  88.849    816.      0.
  88.879    856.      0.
  88.908    908.      0.
  88.937    797.      0.
  88.966    817.      0.
  88.995    772.      0.
  89.024    748.      0.
  89.053    782.      0.
  89.082    872.      0.
  89.111    883.      0.
  89.140    966.      0.
  89.169    914.      0.
  89.198    980.      0.
  89.227   1000.      0.
  89.256   1017.      0.
  89.285   1005.      0.
  89.314   1017.      0.
  89.343   1037.      0.
  89.372   1002.      0.
  89.401    989.      0.
  89.430    996.      0.
  89.459   1024.      0.
  89.488   1109.      0.
  89.517   1204.      0.
  89.546   1228.      0.
  89.575   1181.      0.
  89.604   1176.      0.
  89.634   1151.      0.
  89.663   1064.      0.
  89.692   1090.      0.
  89.721   1069.      0.
  89.750   1039.      0.
  89.779    983.      0.
  89.808   1018.      0.
  89.837    946.      0.
  89.866    971.      0.
  89.895   1008.      0.
  89.924    982.      0.
  89.953    948.      0.
  89.982    931.      0.
  90.011    906.      0.
  90.040    911.      0.
  90.069    933.      0.
  90.098    960.      0.
  90.127    954.      0.
  90.156    960.      0.
  90.185    943.      0.
  90.214    953.      0.
  90.243   1054.      0.
  90.272    954.      0.
  90.301   1028.      0.
  90.330    900.      0.
  90.360   1001.      0.
  90.389    959.      0.
  90.418   1035.      0.
  90.447    966.      0.
  90.476    969.      0.
  90.505   1046.      0.
  90.534    978.      0.
  90.563    989.      0.
  90.592    916.      0.
  90.621    818.      0.
  90.650    881.      0.
  90.679    823.      0.
  90.708    862.      0.
  90.737    843.      0.
  90.766    805.      0.
  90.795    791.      0.
  90.824    838.      0.
  90.853    865.      0.
  90.882    923.      0.
  90.911    902.      0.
  90.940    809.      0.
  90.969    795.      0.
  90.998    780.      0.
  91.027    818.      0.
  91.056    840.      0.
  91.085    724.      0.
  91.115    815.      0.
  91.144    750.      0.
  91.173    744.      0.
  91.202    754.      0.
  91.231    776.      0.
  91.260    729.      0.
  91.289    701.      0.
  91.318    744.      0.
  91.347    710.      0.
  91.376    784.      0.
  91.405    725.      0.
  91.434    713.      0.
  91.463    743.      0.
  91.492    712.      0.
  91.521    781.      0.
  91.550    751.      0.
  91.579    773.      0.
  91.608    811.      0.
  91.637    863.      0.
  91.666    869.      0.
  91.695    822.      0.
  91.724    755.      0.
  91.753    680.      0.
  91.782    687.      0.
  91.811    661.      0.
  91.840    702.      0.
  91.870    655.      0.
  91.899    629.      0.
  91.928    605.      0.
  91.957    582.      0.
  91.986    590.      0.
  92.015    598.      0.
  92.044    578.      0.
  92.073    555.      0.
  92.102    496.      0.
  92.131    548.      0.
  92.160    526.      0.
  92.189    487.      0.
  92.218    584.      0.
  92.247    550.      0.
  92.276    571.      0.
  92.305    579.      0.
  92.334    589.      0.
  92.363    638.      0.
  92.392    591.      0.
  92.421    580.      0.
  92.450    578.      0.
  92.479    601.      0.
  92.508    664.      0.
  92.537    681.      0.
  92.566    636.      0.
  92.596    555.      0.
  92.625    545.      0.
  92.654    562.      0.
  92.683    520.      0.
  92.712    494.      0.
  92.741    486.      0.
  92.770    514.      0.
  92.799    491.      0.
  92.828    478.      0.
  92.857    471.      0.
  92.886    530.      0.
  92.915    520.      0.
  92.944    505.      0.
  92.973    635.      0.
  93.002    605.      0.
  93.031    666.      0.
  93.060    672.      0.
  93.089    697.      0.
  93.118    610.      0.
  93.147    608.      0.
  93.176    522.      0.
  93.205    555.      0.
  93.234    517.      0.
  93.263    471.      0.
  93.292    472.      0.
  93.321    471.      0.
  93.351    475.      0.
  93.380    462.      0.
  93.409    494.      0.
  93.438    404.      0.
  93.467    402.      0.
  93.496    401.      0.
  93.525    372.      0.
  93.554    381.      0.
  93.583    376.      0.
  93.612    379.      0.
  93.641    404.      0.
  93.670    388.      0.
  93.699    384.      0.
  93.728    380.      0.
  93.757    341.      0.
  93.786    352.      0.
  93.815    354.      0.
  93.844    366.      0.
  93.873    388.      0.
  93.902    355.      0.
  93.931    375.      0.
  93.960    374.      0.
  93.989    370.      0.
  94.018    428.      0.
  94.047    432.      0.
  94.076    490.      0.
  94.106    519.      0.
  94.135    515.      0.
  94.164    536.      0.
  94.193    552.      0.
  94.222    619.      0.
  94.251    703.      0.
  94.280    746.      0.
  94.309    762.      0.
  94.338    758.      0.
  94.367    746.      0.
  94.396    754.      0.
  94.425    763.      0.
  94.454    794.      0.
  94.483    782.      0.
  94.512    787.      0.
  94.541    833.      0.
  94.570    767.      0.
  94.599    779.      0.
  94.628    797.      0.
  94.657    792.      0.
  94.686    803.      0.
  94.715    808.      0.
  94.744    861.      0.
  94.773    858.      0.
  94.802    813.      0.
  94.832    788.      0.
  94.861    826.      0.
  94.890    801.      0.
  94.919    803.      0.
  94.948    777.      0.
  94.977    771.      0.
  95.006    848.      0.
  95.035    826.      0.
  95.064    878.      0.
  95.093    845.      0.
  95.122    799.      0.
  95.151    851.      0.
  95.180    821.      0.
  95.209    808.      0.
  95.238    810.      0.
  95.267    791.      0.
  95.296    751.      0.
  95.325    803.      0.
  95.354    743.      0.
  95.383    758.      0.
  95.412    715.      0.
  95.441    826.      0.
  95.470    767.      0.
  95.499    823.      0.
  95.528    817.      0.
  95.557    788.      0.
  95.587    779.      0.
  95.616    830.      0.
  95.645    831.      0.
  95.674    857.      0.
  95.703    844.      0.
  95.732    822.      0.
  95.761    824.      0.
  95.790    760.      0.
  95.819    764.      0.
  95.848    700.      0.
  95.877    625.      0.
  95.906    546.      0.
  95.935    573.      0.
  95.964    571.      0.
  95.993    645.      0.
  96.022    693.      0.
  96.051    748.      0.
  96.080    703.      0.
  96.109    728.      0.
  96.138    691.      0.
  96.167    782.      0.
  96.196    759.      0.
  96.225    794.      0.
  96.254    815.      0.
  96.283    829.      0.
  96.312    889.      0.
  96.342    885.      0.
  96.371    917.      0.
  96.400    884.      0.
  96.429    909.      0.
  96.458    904.      0.
  96.487    912.      0.
  96.516    919.      0.
  96.545    876.      0.
  96.574    936.      0.
  96.603    957.      0.
  96.632    939.      0.
  96.661    883.      0.
  96.690    862.      0.
  96.719    854.      0.
  96.748    823.      0.
  96.777    879.      0.
  96.806    863.      0.
  96.835    852.      0.
  96.864    903.      0.
  96.893    882.      0.
  96.922    911.      0.
  96.951    945.      0.
  96.980    956.      0.
  97.009    978.      0.
  97.038    863.      0.
  97.067    901.      0.
  97.097    910.      0.
  97.126    944.      0.
  97.155    915.      0.
  97.184    930.      0.
  97.213    962.      0.
  97.242    956.      0.
  97.271   1006.      0.
  97.300   1049.      0.
  97.329   1006.      0.
  97.358    990.      0.
  97.387   1036.      0.
  97.416   1009.      0.
  97.445   1046.      0.
  97.474   1083.      0.
  97.503   1092.      0.
  97.532   1141.      0.
  97.561   1123.      0.
  97.590   1162.      0.
  97.619   1128.      0.
  97.648   1174.      0.
  97.677   1145.      0.
  97.706   1178.      0.
  97.735   1187.      0.
  97.764   1238.      0.
  97.793   1122.      0.
  97.823   1139.      0.
  97.852   1111.      0.
  97.881   1128.      0.
  97.910   1177.      0.
  97.939   1186.      0.
  97.968   1187.      0.
  97.997   1174.      0.
  98.026   1187.      0.
  98.055   1235.      0.
  98.084   1163.      0.
  98.113   1129.      0.
  98.142   1176.      0.
  98.171   1175.      0.
  98.200   1112.      0.
  98.229   1087.      0.
  98.258   1101.      0.
  98.287   1106.      0.
  98.316   1180.      0.
  98.345   1145.      0.
  98.374   1148.      0.
  98.403   1165.      0.
  98.432   1152.      0.
  98.461   1156.      0.
  98.490   1237.      0.
  98.519   1171.      0.
  98.548   1198.      0.
  98.578   1147.      0.
  98.607   1267.      0.
  98.636   1241.      0.
  98.665   1201.      0.
  98.694   1226.      0.
  98.723   1258.      0.
  98.752   1178.      0.
  98.781   1185.      0.
  98.810   1161.      0.
  98.839   1165.      0.
  98.868   1075.      0.
  98.897   1090.      0.
  98.926   1084.      0.
  98.955   1094.      0.
  98.984   1054.      0.
  99.013   1148.      0.
  99.042   1134.      0.
  99.071   1127.      0.
  99.100   1090.      0.
  99.129   1177.      0.
  99.158   1117.      0.
  99.187   1123.      0.
  99.216   1156.      0.
  99.245   1074.      0.
  99.274   1157.      0.
  99.303   1164.      0.
  99.333   1159.      0.
  99.362   1187.      0.
  99.391   1191.      0.
  99.420   1270.      0.
  99.449   1270.      0.
  99.478   1252.      0.
  99.507   1201.      0.
  99.536   1194.      0.
  99.565   1242.      0.
  99.594   1163.      0.
  99.623   1177.      0.
  99.652   1155.      0.
  99.681   1186.      0.
  99.710   1263.      0.
  99.739   1226.      0.
  99.768   1247.      0.
  99.797   1252.      0.
  99.826   1216.      0.
  99.855   1176.      0.
  99.884   1256.      0.
  99.913   1302.      0.
  99.942   1332.      0.
  99.971   1287.      0.
 100.000   1351.      0.
 100.029   1248.      0.
 100.059   1300.      0.
 100.088   1309.      0.
 100.117   1217.      0.
 100.146   1280.      0.
 100.175   1238.      0.
 100.204   1208.      0.
 100.233   1194.      0.
 100.262   1216.      0.
 100.291   1213.      0.
 100.320   1299.      0.
 100.349   1281.      0.
 100.378   1132.      0.
 100.407   1250.      0.
 100.436   1157.      0.
 100.465   1265.      0.
 100.494   1199.      0.
 100.523   1244.      0.
 100.552   1275.      0.
 100.581   1321.      0.
 100.610   1269.      0.
 100.639   1290.      0.
 100.668   1251.      0.
 100.697   1229.      0.
 100.726   1256.      0.
 100.755   1222.      0.
 100.784   1264.      0.
 100.814   1260.      0.
 100.843   1191.      0.
 100.872   1280.      0.
 100.901   1281.      0.
 100.930   1318.      0.
 100.959   1278.      0.
 100.988   1231.      0.
 101.017   1280.      0.
 101.046   1273.      0.
 101.075   1200.      0.
 101.104   1248.      0.
 101.133   1252.      0.
 101.162   1205.      0.
 101.191   1329.      0.
 101.220   1259.      0.
 101.249   1267.      0.
 101.278   1187.      0.
 101.307   1216.      0.
 101.336   1164.      0.
 101.365   1176.      0.
 101.394   1223.      0.
 101.423   1076.      0.
 101.452   1075.      0.
 101.481   1138.      0.
 101.510   1150.      0.
 101.539   1063.      0.
 101.569   1171.      0.
 101.598   1174.      0.
 101.627   1156.      0.
 101.656   1103.      0.
 101.685   1167.      0.
 101.714   1191.      0.
 101.743   1263.      0.
 101.772   1257.      0.
 101.801   1307.      0.
 101.830   1231.      0.
 101.859   1244.      0.
 101.888   1276.      0.
 101.917   1255.      0.
 101.946   1258.      0.
 101.975   1293.      0.
 102.004   1289.      0.
 102.033   1230.      0.
 102.062   1213.      0.
 102.091   1248.      0.
 102.120   1237.      0.
 102.149   1282.      0.
 102.178   1208.      0.
 102.207   1251.      0.
 102.236   1276.      0.
 102.265   1272.      0.
 102.294   1304.      0.
 102.324   1302.      0.
 102.353   1350.      0.
 102.382   1358.      0.
 102.411   1278.      0.
 102.440   1317.      0.
 102.469   1337.      0.
 102.498   1264.      0.
 102.527   1178.      0.
 102.556   1216.      0.
 102.585   1196.      0.
 102.614   1180.      0.
 102.643   1171.      0.
 102.672   1185.      0.
 102.701   1221.      0.
 102.730   1270.      0.
 102.759   1172.      0.
 102.788   1161.      0.
 102.817   1165.      0.
 102.846   1160.      0.
 102.875   1142.      0.
 102.904   1159.      0.
 102.933   1200.      0.
 102.962   1238.      0.
 102.991   1257.      0.
 103.020   1288.      0.
 103.050   1254.      0.
 103.079   1220.      0.
 103.108   1195.      0.
 103.137   1130.      0.
 103.166   1098.      0.
 103.195   1078.      0.
 103.224   1072.      0.
 103.253   1161.      0.
 103.282   1115.      0.
 103.311   1081.      0.
 103.340   1071.      0.
 103.369   1029.      0.
 103.398   1046.      0.
 103.427   1024.      0.
 103.456   1052.      0.
 103.485   1075.      0.
 103.514   1096.      0.
 103.543   1096.      0.
 103.572   1221.      0.
 103.601   1212.      0.
 103.630   1126.      0.
 103.659   1140.      0.
 103.688   1125.      0.
 103.717   1177.      0.
 103.746   1132.      0.
 103.775   1195.      0.
 103.805   1172.      0.
 103.834   1258.      0.
 103.863   1134.      0.
 103.892   1168.      0.
 103.921   1220.      0.
 103.950   1263.      0.
 103.979   1201.      0.
 104.008   1220.      0.
 104.037   1256.      0.
 104.066   1243.      0.
 104.095   1226.      0.
 104.124   1218.      0.
 104.153   1203.      0.
 104.182   1238.      0.
 104.211   1349.      0.
 104.240   1215.      0.
 104.269   1224.      0.
 104.298   1294.      0.
 104.327   1264.      0.
 104.356   1370.      0.
 104.385   1311.      0.
 104.414   1207.      0.
 104.443   1247.      0.
 104.472   1265.      0.
 104.501   1233.      0.
 104.530   1266.      0.
 104.560   1193.      0.
 104.589   1281.      0.
 104.618   1199.      0.
 104.647   1159.      0.
 104.676   1161.      0.
 104.705   1128.      0.
 104.734   1141.      0.
 104.763   1134.      0.
 104.792   1180.      0.
 104.821   1095.      0.
 104.850   1136.      0.
 104.879   1118.      0.
 104.908   1104.      0.
 104.937   1167.      0.
 104.966   1137.      0.
 104.995   1127.      0.
 105.024   1177.      0.
 105.053   1121.      0.
 105.082   1058.      0.
 105.111   1053.      0.
 105.140   1137.      0.
 105.169   1155.      0.
 105.198   1059.      0.
 105.227   1162.      0.
 105.256   1119.      0.
 105.286   1108.      0.
 105.315   1104.      0.
 105.344   1142.      0.
 105.373   1195.      0.
 105.402   1227.      0.
 105.431   1206.      0.
 105.460   1226.      0.
 105.489   1194.      0.
 105.518   1231.      0.
 105.547   1188.      0.
 105.576   1175.      0.
 105.605   1122.      0.
 105.634   1101.      0.
 105.663   1107.      0.
 105.692   1118.      0.
 105.721   1198.      0.
 105.750   1114.      0.
 105.779   1092.      0.
 105.808   1199.      0.
 105.837   1162.      0.
 105.866   1175.      0.
 105.895   1121.      0.
 105.924   1109.      0.
 105.953   1130.      0.
 105.982   1120.      0.
 106.011   1162.      0.
 106.041   1154.      0.
 106.070   1144.      0.
 106.099   1138.      0.
 106.128   1160.      0.
 106.157   1178.      0.
 106.186   1096.      0.
 106.215   1120.      0.
 106.244   1138.      0.
 106.273   1137.      0.
 106.302   1144.      0.
 106.331   1128.      0.
 106.360   1218.      0.
 106.389   1151.      0.
 106.418   1174.      0.
 106.447   1181.      0.
 106.476   1203.      0.
 106.505   1181.      0.
 106.534   1247.      0.
 106.563   1157.      0.
 106.592   1099.      0.
 106.621   1065.      0.
 106.650   1080.      0.
 106.679   1063.      0.
 106.708   1057.      0.
 106.737   1033.      0.
 106.766   1067.      0.
 106.796   1078.      0.
 106.825   1053.      0.
 106.854   1047.      0.
 106.883   1007.      0.
 106.912   1001.      0.
 106.941   1004.      0.
 106.970    992.      0.
 106.999    976.      0.
 107.028    998.      0.
 107.057    907.      0.
 107.086    899.      0.
 107.115    892.      0.
 107.144    931.      0.
 107.173    854.      0.
 107.202    975.      0.
 107.231    978.      0.
 107.260    943.      0.
 107.289    936.      0.
 107.318    920.      0.
 107.347    980.      0.
 107.376    904.      0.
 107.405    984.      0.
 107.434    966.      0.
 107.463    935.      0.
 107.492    896.      0.
 107.522    966.      0.
 107.551    915.      0.
 107.580    884.      0.
 107.609    878.      0.
 107.638    880.      0.
 107.667    943.      0.
 107.696    877.      0.
 107.725    936.      0.
 107.754    854.      0.
 107.783    865.      0.
 107.812    878.      0.
 107.841    978.      0.
 107.870    913.      0.
 107.899    906.      0.
 107.928    905.      0.
 107.957    948.      0.
 107.986    901.      0.
 108.015    820.      0.
 108.044    856.      0.
 108.073    891.      0.
 108.102    882.      0.
 108.131    839.      0.
 108.160    850.      0.
 108.189    823.      0.
 108.218    844.      0.
 108.247    797.      0.
 108.277    841.      0.
 108.306    794.      0.
 108.335    773.      0.
 108.364    722.      0.
 108.393    834.      0.
 108.422    841.      0.
 108.451    804.      0.
 108.480    797.      0.
 108.509    825.      0.
 108.538    821.      0.
 108.567    876.      0.
 108.596    836.      0.
 108.625    903.      0.
 108.654    902.      0.
 108.683    837.      0.
 108.712    849.      0.
 108.741    818.      0.
 108.770    824.      0.
 108.799    860.      0.
 108.828    786.      0.
 108.857    862.      0.
 108.886    817.      0.
 108.915    791.      0.
 108.944    802.      0.
 108.973    794.      0.
 109.002    788.      0.
 109.032    805.      0.
 109.061    830.      0.
 109.090    820.      0.
 109.119    806.      0.
 109.148    805.      0.
 109.177    824.      0.
 109.206    799.      0.
 109.235    876.      0.
 109.264    850.      0.
 109.293    782.      0.
 109.322    820.      0.
 109.351    831.      0.
 109.380    789.      0.
 109.409    829.      0.
 109.438    748.      0.
 109.467    739.      0.
 109.496    771.      0.
 109.525    768.      0.
 109.554    825.      0.
 109.583    835.      0.
 109.612    815.      0.
 109.641    823.      0.
 109.670    775.      0.
 109.699    817.      0.
 109.728    771.      0.
 109.757    803.      0.
 109.787    826.      0.
 109.816    802.      0.
 109.845    779.      0.
 109.874    799.      0.
 109.903    811.      0.
 109.932    712.      0.
 109.961    793.      0.
 109.990    735.      0.
 110.019    788.      0.
 110.048    754.      0.
 110.077    755.      0.
 110.106    757.      0.
 110.135    767.      0.
 110.164    784.      0.
 110.193    800.      0.
 110.222    779.      0.
 110.251    816.      0.
 110.280    820.      0.
 110.309    797.      0.
 110.338    849.      0.
 110.367    856.      0.
 110.396    854.      0.
 110.425    859.      0.
 110.454    827.      0.
 110.483    828.      0.
 110.513    872.      0.
 110.542    890.      0.
 110.571    858.      0.
 110.600    899.      0.
 110.629    885.      0.
 110.658    921.      0.
 110.687    882.      0.
 110.716    898.      0.
 110.745    886.      0.
 110.774    893.      0.
 110.803    821.      0.
 110.832    802.      0.
 110.861    842.      0.
 110.890    858.      0.
 110.919    847.      0.
 110.948    806.      0.
 110.977    876.      0.
 111.006    806.      0.
 111.035    837.      0.
 111.064    826.      0.
 111.093    845.      0.
 111.122    838.      0.
 111.151    857.      0.
 111.180    819.      0.
 111.209    893.      0.
 111.238    862.      0.
 111.268    830.      0.
 111.297    914.      0.
 111.326    887.      0.
 111.355    903.      0.
 111.384    905.      0.
 111.413    922.      0.
 111.442    864.      0.
 111.471    933.      0.
 111.500    951.      0.
 111.529    911.      0.
 111.558    856.      0.
 111.587    873.      0.
 111.616    890.      0.
 111.645    851.      0.
 111.674    839.      0.
 111.703    877.      0.
 111.732    872.      0.
 111.761    879.      0.
 111.790    888.      0.
 111.819    887.      0.
 111.848    847.      0.
 111.877    890.      0.
 111.906    933.      0.
 111.935    942.      0.
 111.964    956.      0.
 111.993    991.      0.
 112.023    994.      0.
 112.052    976.      0.
 112.081   1014.      0.
 112.110   1004.      0.
 112.139   1031.      0.
 112.168    994.      0.
 112.197   1023.      0.
 112.226   1041.      0.
 112.255   1019.      0.
 112.284   1014.      0.
 112.313    928.      0.
 112.342    961.      0.
 112.371    971.      0.
 112.400    989.      0.
 112.429    925.      0.
 112.458    964.      0.
 112.487    967.      0.
 112.516    962.      0.
 112.545    901.      0.
 112.574    961.      0.
 112.603    889.      0.
 112.632    872.      0.
 112.661    903.      0.
 112.690    921.      0.
 112.719    876.      0.
 112.749    866.      0.
 112.778    926.      0.
 112.807    959.      0.
 112.836    953.      0.
 112.865    919.      0.
 112.894    944.      0.
 112.923    940.      0.
 112.952    881.      0.
 112.981    903.      0.
 113.010    909.      0.
 113.039    869.      0.
 113.068    903.      0.
 113.097    843.      0.
 113.126    861.      0.
 113.155    936.      0.
 113.184    853.      0.
 113.213    904.      0.
 113.242    841.      0.
 113.271    900.      0.
 113.300    927.      0.
 113.329    916.      0.
 113.358    928.      0.
 113.387    920.      0.
 113.416    867.      0.
 113.445    887.      0.
 113.474    967.      0.
 113.504    866.      0.
 113.533    923.      0.
 113.562    900.      0.
 113.591    931.      0.
 113.620    915.      0.
 113.649    907.      0.
 113.678    931.      0.
 113.707    891.      0.
 113.736    961.      0.
 113.765    986.      0.
 113.794    994.      0.
 113.823   1006.      0.
 113.852    972.      0.
 113.881    968.      0.
 113.910    951.      0.
 113.939    954.      0.
 113.968    931.      0.
 113.997   1000.      0.
 114.026    971.      0.
 114.055    961.      0.
 114.084   1010.      0.
 114.113    946.      0.
 114.142   1010.      0.
 114.171    959.      0.
 114.200    974.      0.
 114.229    977.      0.
 114.259    933.      0.
 114.288    958.      0.
 114.317    926.      0.
 114.346    902.      0.
 114.375    897.      0.
 114.404    872.      0.
 114.433    842.      0.
 114.462    888.      0.
 114.491    857.      0.
 114.520    934.      0.
 114.549    884.      0.
 114.578    991.      0.
 114.607   1094.      0.
 114.636   1211.      0.
 114.665   1177.      0.
 114.694   1250.      0.
 114.723   1261.      0.
 114.752   1196.      0.
 114.781   1202.      0.
 114.810   1112.      0.
 114.839   1100.      0.
 114.868   1091.      0.
 114.897   1133.      0.
 114.926   1175.      0.
 114.955   1130.      0.
 114.984   1149.      0.
 115.014   1166.      0.
 115.043   1168.      0.
 115.072   1116.      0.
 115.101   1134.      0.
 115.130   1115.      0.
 115.159   1179.      0.
 115.188   1212.      0.
 115.217   1186.      0.
 115.246   1106.      0.
 115.275   1226.      0.
 115.304   1118.      0.
 115.333   1177.      0.
 115.362   1175.      0.
 115.391   1184.      0.
 115.420   1166.      0.
 115.449   1171.      0.
 115.478   1231.      0.
 115.507   1168.      0.
 115.536   1144.      0.
 115.565   1161.      0.
 115.594   1152.      0.
 115.623   1098.      0.
 115.652   1172.      0.
 115.681   1222.      0.
 115.710   1115.      0.
 115.740   1153.      0.
 115.769   1146.      0.
 115.798   1106.      0.
 115.827   1071.      0.
 115.856   1116.      0.
 115.885   1019.      0.
 115.914    973.      0.
 115.943    963.      0.
 115.972    881.      0.
 116.001    872.      0.
 116.030    919.      0.
 116.059    930.      0.
 116.088    893.      0.
 116.117    937.      0.
 116.146    922.      0.
 116.175    893.      0.
 116.204    930.      0.
 116.233    940.      0.
 116.262    891.      0.
 116.291    907.      0.
 116.320    867.      0.
 116.349    872.      0.
 116.378    880.      0.
 116.407    892.      0.
 116.436    892.      0.
 116.465    863.      0.
 116.495    846.      0.
 116.524    868.      0.
 116.553    929.      0.
 116.582    929.      0.
 116.611    906.      0.
 116.640    902.      0.
 116.669    869.      0.
 116.698    924.      0.
 116.727    955.      0.
 116.756    972.      0.
 116.785    940.      0.
 116.814    861.      0.
 116.843    938.      0.
 116.872    930.      0.
 116.901    885.      0.
 116.930    956.      0.
 116.959   1000.      0.
 116.988    997.      0.
 117.017   1015.      0.
 117.046    993.      0.
 117.075   1026.      0.
 117.104   1067.      0.
 117.133   1027.      0.
 117.162   1038.      0.
 117.191   1076.      0.
 117.220   1084.      0.
 117.250   1089.      0.
 117.279   1087.      0.
 117.308   1056.      0.
 117.337   1094.      0.
 117.366   1078.      0.
 117.395   1013.      0.
 117.424    992.      0.
 117.453   1063.      0.
 117.482   1097.      0.
 117.511   1055.      0.
 117.540   1061.      0.
 117.569   1088.      0.
 117.598   1005.      0.
 117.627   1081.      0.
 117.656   1065.      0.
 117.685   1062.      0.
 117.714   1064.      0.
 117.743   1078.      0.
 117.772   1031.      0.
 117.801   1109.      0.
 117.830   1032.      0.
 117.859   1043.      0.
 117.888   1020.      0.
 117.917   1105.      0.
 117.946    994.      0.
 117.976   1069.      0.
 118.005   1043.      0.
 118.034   1049.      0.
 118.063   1013.      0.
 118.092   1097.      0.
 118.121   1062.      0.
 118.150    991.      0.
 118.179   1058.      0.
 118.208   1096.      0.
 118.237   1061.      0.
 118.266   1004.      0.
 118.295    994.      0.
 118.324   1083.      0.
 118.353   1077.      0.
 118.382   1048.      0.
 118.411   1162.      0.
 118.440   1207.      0.
 118.469   1173.      0.
 118.498   1197.      0.
 118.527   1213.      0.
 118.556   1196.      0.
 118.585   1195.      0.
 118.614   1174.      0.
 118.643   1175.      0.
 118.672   1237.      0.
 118.701   1211.      0.
 118.731   1232.      0.
 118.760   1201.      0.
 118.789   1228.      0.
 118.818   1207.      0.
 118.847   1188.      0.
 118.876   1195.      0.
 118.905   1213.      0.
 118.934   1331.      0.
 118.963   1285.      0.
 118.992   1312.      0.
 119.021   1257.      0.
 119.050   1249.      0.
 119.079   1309.      0.
 119.108   1246.      0.
 119.137   1158.      0.
 119.166   1041.      0.
 119.195    802.      0.
 119.224    547.      0.
 119.253    312.      0.
 119.282     76.      0.
 119.311      8.      0.
 119.340      0.      0.
 119.369      0.      0.
 119.398      0.      0.
 119.427      0.      0.
 119.456      0.      0.
 119.486      0.      0.
 119.515      0.      0.
 119.544      0.      0.
 119.573      0.      0.
 119.602      0.      0.
 119.631      0.      0.
 119.660      0.      0.
 119.689      0.      0.
 119.718      0.      0.
 119.747      0.      0.
 119.776      0.      0.
 119.805      0.      0.
 119.834      0.      0.
 119.863      0.      0.
 119.892      0.      0.
 119.921      0.      0.
 119.950      0.      0.
 119.979      0.      0.
 120.008      0.      0.
 120.037      0.      0.
 120.066      0.      0.
 120.095      0.      0.
 120.124      0.      0.
 120.153      0.      0.
 120.182      0.      0.
 120.212      0.      0.
 120.241      0.      0.
 120.270      0.      0.
 120.299      0.      0.
 120.328      0.      0.
 120.357      0.      0.
 120.386      0.      0.
 120.415      0.      0.
 120.444      0.      0.
 120.473      0.      0.
 120.502      0.      0.
 120.531      0.      0.
 120.560      0.      0.
;
